%chk=bf4.chk
%mem=56Gb
%nprocs=12

#p pbepbe/def2tzvp/w06 opt scrf(cpcm,solvent=generic,read)

 bf4

-1  1
B           0.91151        -0.00277         0.04650
F           0.42689        -0.61911        -1.17783
F           0.42689        -0.75491         1.19242
F           0.42689         1.36569         0.12490
F           2.36537        -0.00278         0.04650

eps=999.0

