  23
        -42.15335016
 C          2.6983390529        0.5995162425        0.2489220138
 C          2.3625041059       -0.8845742491        0.3531333615
 N          0.9616957613       -1.1010204049        0.0054759258
 C          0.4708716382       -1.2245473233       -1.2711529630
 C         -0.8817815985       -1.2318654505       -1.1733027175
 N         -1.1877818501       -1.1120927517        0.1562214139
 C         -0.0597686402       -0.9807012850        0.8526215541
 C         -2.5093352326       -0.8572735254        0.7059247575
 N         -0.5754250986        1.6853503329       -0.0774774951
 O         -0.3147381252        1.3449464824        1.0955006229
 O         -1.7172622104        1.5414779887       -0.4986663245
 O          0.3182773543        2.0943015974       -0.7988910423
 H          2.0534460592        1.1770109369        0.9099239859
 H          2.5371837786        0.9521743645       -0.7679641452
 H          3.7400630822        0.7535273917        0.5271474523
 H          2.5142649158       -1.2511868174        1.3724941402
 H          2.9734383285       -1.4795956425       -0.3317740371
 H          1.1192303269       -1.2934844181       -2.1264093527
 H         -1.6458234679       -1.2859579738       -1.9279771013
 H          0.0146547175       -0.8905477339        1.9210811562
 H         -2.4393920153        0.0287224436        1.3379543477
 H         -2.8477163073       -1.7179961170        1.2848601701
 H         -3.1917172264       -0.6576577685       -0.1161900122
