%chk=methanol.chk
%nprocs=12

#G2

methanol

0  1
C          1.09505        0.04607        0.02767
O          2.51075        0.03547        0.02900
H          0.73364        0.44141       -0.92481
H          0.73364        0.66548        0.85218
H          0.73190       -0.97624        0.15658
H          2.80352        0.95541       -0.08700

