%chk=c2c1im_scn.chk
%nprocs=12

#CBS-QB3

c2c1im_scn.chk

0  1
C           2.32943         1.50413         1.23463
C           1.74697         1.13642        -0.12061
N           0.29888         1.20710        -0.12230
C          -0.48632         1.84675        -1.04612
C          -1.75939         1.39964        -0.86675
N          -1.72307         0.49265         0.15360
C          -0.46536         0.37214         0.58769
C          -2.81339        -0.35173         0.61233
C           0.21661        -2.25708         0.00196
N          -0.77714        -2.47344         0.58799
S           1.59091        -1.91872        -0.79634
H           2.06026         2.52446         1.51090
H           3.41483         1.42747         1.18611
H           1.96778         0.82507         2.00614
H           1.96143         0.04471        -0.37330
H           2.12593         1.78869        -0.90993
H          -0.08083         2.55621        -1.74569
H          -2.67130         1.64740        -1.38121
H          -0.14527        -0.27792         1.38247
H          -2.41897        -1.38015         0.66235
H          -3.63744        -0.28677        -0.09498
H          -3.14049        -0.02853         1.60123

