          22
  -33.9162893146000        1.00000000000000      !mtd3
 C          0.80989159        2.66718576        1.33442888
 C          0.62232715        2.03203786       -0.03413032
 N         -0.57570648        1.21735113       -0.09076689
 C         -1.54492490        1.25813850       -1.05920170
 C         -2.30186217        0.13601068       -0.91474330
 N         -1.77507899       -0.56776440        0.13028730
 C         -0.71761915        0.09058995        0.61288315
 C         -2.15742856       -1.89926219        0.56927670
 C          1.43362975       -1.59340839        0.09409888
 N          0.74215761       -2.36682364        0.64306016
 S          2.36632688       -0.49410960       -0.65493735
 H         -0.03254466        3.31414371        1.58291749
 H          1.72108750        3.26375662        1.32585224
 H          0.90350891        1.90214639        2.10460828
 H          1.46077215        1.29084171       -0.25770520
 H          0.56493916        2.78627780       -0.82161228
 H         -1.61469890        2.06934005       -1.76221641
 H         -3.15574372       -0.21313257       -1.46844138
 H         -0.10652870       -0.23883705        1.43431167
 H         -1.22828702       -2.48921910        0.63790079
 H         -2.84059187       -2.33316045       -0.15772981
 H         -2.63552081       -1.84261672        1.54781971
