          22
 SCF done        -33.916291319402          0.000101610197   !mtd3
C           0.81127969232339    2.66966089778777    1.33196436055052
C           0.62210933593176    2.03271988382471   -0.03539268059787
N          -0.57649312158340    1.21887732728732   -0.08997728217018
C          -1.55017730199697    1.26295271600400   -1.05390082909724
C          -2.30534455228641    0.13954309885892   -0.91086802733473
N          -1.77292245706299   -0.56878177017938    0.12830024502610
C          -0.71395168638158    0.08857652391846    0.60917992877560
C          -2.15487710457932   -1.90129784807044    0.56500798605678
C           1.43371879761410   -1.59983362080312    0.10146268145224
N           0.74645512462771   -2.37304243143146    0.65606429589450
S           2.36016330598436   -0.49929533454996   -0.65418585559339
H          -0.02776635097336    3.32192012793736    1.57775996303221
H           1.72592442806509    3.26100157517014    1.32361508291644
H           0.89912526036852    1.90560988635758    2.10373632462528
H           1.45939065246835    1.29040477692273   -0.25812121510631
H           0.56490303677182    2.78586492916166   -0.82380554245481
H          -1.62419730751446    2.07728838560757   -1.75284639474578
H          -3.16140271918703   -0.20787140234355   -1.46232922950636
H          -0.10013967014166   -0.24268444917685    1.42784220151129
H          -1.22421109437544   -2.48642900385843    0.64985385557281
H          -2.82315126751720   -2.34099930986499   -0.17231163998704
H          -2.65033023055542   -1.84469890855995    1.53491238117993
