  22
        -33.91629132
 C          2.3294263258        1.5041255318        1.2346305858
 C          1.7469699674        1.1364210807       -0.1206120435
 N          0.2988784082        1.2070966242       -0.1222973301
 C         -0.4863206675        1.8467541523       -1.0461224140
 C         -1.7593884816        1.3996407855       -0.8667537881
 N         -1.7230659990        0.4926476245        0.1535952645
 C         -0.4653613006        0.3721447079        0.5876945951
 C         -2.8133854663       -0.3517289375        0.6123258853
 C          0.2166085229       -2.2570806854        0.0019599123
 N         -0.7771355274       -2.4734397356        0.5879869558
 S          1.5909112615       -1.9187169530       -0.7963449325
 H          2.0602563325        2.5244569841        1.5109041574
 H          3.4148288318        1.4274730031        1.1861095639
 H          1.9677841042        0.8250732970        2.0061393170
 H          1.9614251372        0.0447081754       -0.3733008514
 H          2.1259296517        1.7886892647       -0.9099349398
 H         -0.0808289088        2.5562135609       -1.7456867276
 H         -2.6713047107        1.6473957017       -1.3812128933
 H         -0.1452669724       -0.2779153552        1.3824703345
 H         -2.4189651027       -1.3801483733        0.6623514233
 H         -3.6374396161       -0.2867667089       -0.0949807176
 H         -3.1404858533       -0.0285315786        1.6012346676
