          22
  -33.9162913194000        1.00000000000000      !mtd3
 C         -0.78031366       -2.67882526        1.33383177
 C         -0.59685467       -2.04187592       -0.03429940
 N          0.59137619       -1.21291963       -0.08820622
 C          1.56724695       -1.24623936       -1.05034871
 C          2.30778548       -0.11305309       -0.90795250
 N          1.76454407        0.59021388        0.12904916
 C          0.71318532       -0.07975905        0.60922134
 C          2.12871706        1.92823783        0.56410324
 C         -1.45492084        1.58026938        0.09481352
 N         -0.77854666        2.36312572        0.64926829
 S         -2.36592988        0.46671705       -0.66053566
 H          0.06653837       -3.31991548        1.58222826
 H         -1.68733379       -3.28178750        1.32491374
 H         -0.87925218       -1.91463065        2.10411777
 H         -1.44313032       -1.31067514       -0.25978258
 H         -0.52866239       -2.79558453       -0.82129876
 H          1.65287286       -2.06076552       -1.74774515
 H          3.16032225        0.24429450       -1.45852097
 H          0.09375499        0.24505905        1.42623187
 H          1.19052287        2.50160614        0.64630398
 H          2.79263841        2.37515227       -0.17281188
 H          2.62313414        1.87962431        1.53496896
