%chk=c2c1im_cso3.chk
%nprocs=12
%mem=32Gb

#CBS-QB3

c2c1im_cso3.gjf

0  1
C          -0.95125        -2.71331        -0.41076
C          -1.51700        -1.93557         0.77171
N          -1.71433        -0.54034         0.38784
C          -2.48225        -0.10344        -0.65824
C          -2.21951         1.22014        -0.81368
N          -1.30279         1.55687         0.14443
C          -0.99546         0.47605         0.85373
C          -0.58684         2.81779         0.21781
C           3.36956        -0.35002        -0.56299
S           1.70138        -0.02480        -0.02017
O           0.86141        -0.04397        -1.22368
O           1.36704        -1.10474         0.92148
O           1.74028         1.29645         0.62484
H          -0.05629        -2.21272        -0.77760
H          -1.68000        -2.77972        -1.21812
H          -0.69009        -3.71836        -0.08277
H          -0.80487        -1.94086         1.59982
H          -2.47479        -2.34735         1.10542
H          -3.14397        -0.75726        -1.19830
H          -2.60252         1.93840        -1.51708
H          -0.27502         0.42875         1.65179
H          -0.14616         2.91449         1.20728
H          -1.27176         3.64062         0.01694
H           0.21402         2.79397        -0.52299
H           4.01233        -0.33858         0.31124
H           3.65119         0.43035        -1.26261
H           3.38213        -1.32394        -1.04163

