  27
        -46.44742941
 C         -0.9512463933       -2.7133088128       -0.4107623707
 C         -1.5169984447       -1.9355701501        0.7717124002
 N         -1.7143276761       -0.5403387803        0.3878420715
 C         -2.4822482079       -0.1034376297       -0.6582374372
 C         -2.2195082313        1.2201412723       -0.8136829097
 N         -1.3027858370        1.5568699486        0.1444280141
 C         -0.9954602518        0.4760513113        0.8537313689
 C         -0.5868350936        2.8177885875        0.2178113341
 C          3.3695627790       -0.3500228412       -0.5629934749
 S          1.7013811264       -0.0247999472       -0.0201733148
 O          0.8614087647       -0.0439731941       -1.2236795425
 O          1.3670401547       -1.1047354127        0.9214759728
 O          1.7402805838        1.2964540092        0.6248364985
 H         -0.0562865343       -2.2127163281       -0.7775966216
 H         -1.6800020829       -2.7797249337       -1.2181151256
 H         -0.6900897042       -3.7183567082       -0.0827704696
 H         -0.8048727154       -1.9408638103        1.5998195337
 H         -2.4747850437       -2.3473488350        1.1054195312
 H         -3.1439677803       -0.7572575930       -1.1983026493
 H         -2.6025225337        1.9384030339       -1.5170819737
 H         -0.2750158274        0.4287546376        1.6517879099
 H         -0.1461571881        2.9144868034        1.2072792954
 H         -1.2717598425        3.6406169060        0.0169446239
 H          0.2140166479        2.7939698745       -0.5229861468
 H          4.0123312310       -0.3385757520        0.3112418688
 H          3.6511872917        0.4303523822       -1.2626081520
 H          3.3821312586       -1.3239442828       -1.0416335510
  27
        -46.44719500
 C          1.6159852908       -2.5698319724       -0.4359766400
 C          1.9491636581       -1.6844177796        0.7589267254
 N          1.8371065169       -0.2786247479        0.3811604173
 C          2.5105837112        0.3310072011       -0.6439273154
 C          1.9725116865        1.5704473402       -0.7842893545
 N          0.9927498933        1.6874092198        0.1626778216
 C          0.9135910656        0.5545305286        0.8516758649
 C          0.0127030088        2.7574053075        0.2273220031
 C         -3.3500378971       -0.8307671440       -0.4997559571
 S         -1.7316008312       -0.2432922079       -0.0322250493
 O         -1.1025732374        0.2617118114       -1.2568781197
 O         -1.9586207707        0.8136250054        0.9650896014
 O         -1.0318427761       -1.4087531154        0.5339600619
 H          0.6152536458       -2.3315979905       -0.7940752960
 H          1.6421495359       -3.6124833803       -0.1224098807
 H          2.3328384145       -2.4233737460       -1.2432604049
 H          2.9639140281       -1.8696728536        1.1255624318
 H          1.2299356182       -1.8555375357        1.5630035219
 H          3.3056440914       -0.1558732855       -1.1804611349
 H          2.2022364115        2.3656179805       -1.4715254738
 H          0.2108003827        0.3451491133        1.6395128565
 H          0.4959383179        3.7096433232        0.0136737394
 H         -0.4381389967        2.7643097181        1.2169165678
 H         -0.7592232459        2.5408653451       -0.5138758355
 H         -3.8372655320       -1.2104190322        0.3924598886
 H         -3.2206678614       -1.6171215738       -1.2363717787
 H         -3.9012354952        0.0057000979       -0.9172189974
  27
        -46.44718067
 C          1.5574140061        2.3904948318        0.3695344184
 C          2.5828639705        1.2652358983        0.2803855198
 N          1.9136743534        0.0081097770       -0.0332462794
 C          1.6493231389       -0.4616374384       -1.2931043696
 C          0.8802884460       -1.5702487334       -1.1460400495
 N          0.6908610165       -1.7479015291        0.1963387241
 C          1.2800281426       -0.7543349154        0.8560206561
 C         -0.2360279331       -2.6879523219        0.8018270319
 C         -3.0221721006        1.3414092236        0.1021756212
 S         -1.5211160316        0.3976783624       -0.1085949141
 O         -0.7307203461        1.1084602543       -1.1153153254
 O         -0.8765518167        0.3943864711        1.2247046682
 O         -1.9409953125       -0.9404491513       -0.5325129003
 H          2.0590852394        3.3148005461        0.6533722555
 H          0.7980605461        2.1433566879        1.1100718371
 H          1.0635254202        2.5231461774       -0.5912974486
 H          3.1093548589        1.1373554935        1.2312594443
 H          3.3170658278        1.4593875368       -0.5064551448
 H          2.0098422523        0.0368135609       -2.1746461010
 H          0.4264166773       -2.2187698141       -1.8734741876
 H          1.2785593314       -0.6162315468        1.9218833177
 H         -0.8285486235       -3.1435454279        0.0124428481
 H         -0.8931427605       -2.1275643704        1.4667382201
 H          0.3125966705       -3.4499535882        1.3578005882
 H         -3.6293036625        0.8424710576        0.8505852202
 H         -3.5322348232        1.3705311887       -0.8553088044
 H         -2.7484247830        2.3401232621        0.4268091039
  27
        -46.44697618
 C          0.6827368442        2.7792472701       -0.3943543898
 C          1.2946452638        2.0341277995        0.7857663423
 N          1.6395738212        0.6731511058        0.3828045485
 C          2.4858319998        0.3372461478       -0.6389718530
 C          2.3863972473       -1.0076388674       -0.8063984038
 N          1.4845955385       -1.4557961067        0.1179739528
 C          1.0290903646       -0.4226497363        0.8215037195
 C          0.9598583450       -2.8066322593        0.2155407485
 C         -3.4139331240        0.1022957999       -0.5720744736
 S         -1.7297045818       -0.1038766325       -0.0208145463
 O         -1.4927709379        0.9677508925        0.9582436809
 O         -1.6660640581       -1.4441954313        0.5816139996
 O         -0.8832472092        0.0221487779       -1.2128118594
 H          1.4176638336        2.9280976749       -1.1850191433
 H          0.3240973015        3.7494766822       -0.0537834505
 H         -0.1551850668        2.2062847579       -0.7887853835
 H          0.5676377668        1.9528984602        1.5966979692
 H          2.2001339713        2.5299008372        1.1501564471
 H          3.0821970173        1.0680320201       -1.1559504189
 H          2.8756885070       -1.6704958025       -1.4982767422
 H          0.2817443615       -0.4659199157        1.5950388573
 H         -0.1061163348       -2.7714003493       -0.0236679502
 H          1.0909744529       -3.1755716862        1.2326010044
 H          1.4897587145       -3.4466105201       -0.4869409445
 H         -4.0605330925        0.0191379991        0.2953532452
 H         -3.6278549828       -0.6803652014       -1.2926863832
 H         -3.4995911552        1.0836173404       -1.0274716169
  27
        -46.44691753
 C         -1.3603716527       -2.4956571879       -0.4156141623
 C         -2.4541497495       -1.4482494515       -0.2380217189
 N         -1.8664854730       -0.1491856414        0.0688823352
 C         -1.5689144079        0.3161893198        1.3226138509
 C         -0.9318234729        1.5033761632        1.1617717229
 N         -0.8556142063        1.7336181544       -0.1855865029
 C         -1.3694641342        0.6936298968       -0.8357297548
 C         -0.0718051401        2.7873561130       -0.8017558003
 C          3.0897836351       -1.1499575489       -0.2010855191
 S          1.5418856965       -0.3133314520        0.1036711544
 O          0.8442612141       -1.1058263803        1.1182247661
 O          1.8951645858        1.0340135718        0.5600324898
 O          0.8429472259       -0.3065524321       -1.2002565057
 H         -0.8036706799       -2.6160826263        0.5118206469
 H         -0.6649211975       -2.1796843038       -1.1916183410
 H         -1.8141232224       -3.4457058346       -0.6952952097
 H         -3.1242992931       -1.7132785647        0.5846142356
 H         -3.0450221360       -1.3399771497       -1.1529682235
 H         -1.8127983631       -0.2399727648        2.2095132198
 H         -0.5010706188        2.1799499963        1.8775384996
 H         -1.4215458090        0.5796467144       -1.9032163081
 H         -0.3460601491        2.8700001266       -1.8518531842
 H          0.9824554855        2.5138475661       -0.7073695568
 H         -0.2609831991        3.7277672707       -0.2862485802
 H          3.6412675476       -1.1769581415        0.7332036238
 H          3.6312143075       -0.5884731145       -0.9555923702
 H          2.8667304974       -2.1533176680       -0.5493469113
  27
        -46.44613712
 C         -1.8782749974       -2.4422920588        0.9432866620
 C         -2.0122097827       -1.7020798224       -0.3775323288
 N         -1.8165050666       -0.2628407907       -0.2154801113
 C         -2.2432661438        0.6797508216       -1.1121856396
 C         -1.6862163809        1.8608335118       -0.7384434803
 N         -0.9399200040        1.6091154735        0.3789468300
 C         -1.0132216621        0.3153632299        0.6732224431
 C          0.0061685519        2.5340369271        0.9779663743
 C          3.3666750634       -0.8098033085       -0.5117421462
 S          1.7078094568       -0.2767679080       -0.1275527873
 O          0.8728680562       -1.4875280833       -0.2104423588
 O          1.7661472125        0.2707784138        1.2372828681
 O          1.3558598746        0.7349383047       -1.1272949592
 H         -0.8417880084       -2.4214051357        1.2778053440
 H         -2.1727529045       -3.4806297292        0.7951068964
 H         -2.5164862035       -1.9989332315        1.7076374479
 H         -2.9997714062       -1.8543268510       -0.8226437453
 H         -1.2409246065       -2.0464711561       -1.0752254391
 H         -2.8942342502        0.4341435537       -1.9327589097
 H         -1.7552072726        2.8429750959       -1.1717177120
 H         -0.4858693787       -0.1680024857        1.4760831380
 H          0.2865741663        2.1633079215        1.9610581217
 H         -0.4430388514        3.5236883877        1.0495084931
 H          0.8914578266        2.5572543843        0.3393852013
 H          3.3605426337       -1.2220324571       -1.5156400961
 H          3.6524488210       -1.5626803742        0.2156772000
 H          4.0182608937        0.0559756524       -0.4512893512
  27
        -46.44598889
 C         -1.5122705271       -2.3925629542       -0.9801952367
 C         -1.9695088240       -1.7257840310        0.3065197639
 N         -1.7061335824       -0.2869853998        0.2978921330
 C         -1.5283858887        0.4469025733        1.4432340372
 C         -1.0833842635        1.6700629840        1.0662417868
 N         -1.0115337242        1.6602029739       -0.3013419865
 C         -1.3486831435        0.4520707207       -0.7484680157
 C         -0.3056491178        2.6516203908       -1.0915696911
 C          3.2003572086       -0.8611513835       -0.0370771810
 S          1.5281446547       -0.2588986950        0.1300231099
 O          1.6393938455        1.1019100105        0.6634826832
 O          0.9661368882       -0.2819263257       -1.2381806214
 O          0.8484708516       -1.1928682927        1.0316371268
 H         -1.6200390829       -3.4712084604       -0.8707404349
 H         -0.4639588203       -2.1583010762       -1.1638574903
 H         -2.1097455702       -2.0675519390       -1.8320187420
 H         -1.4037099638       -2.1304619992        1.1508031251
 H         -3.0397436604       -1.8831803264        0.4820899690
 H         -1.7023108057        0.0262261496        2.4171620219
 H         -0.7861661961        2.5262757496        1.6440680804
 H         -1.3654798957        0.1567262023       -1.7808392331
 H          0.7639344998        2.4902463386       -0.9343989256
 H         -0.5885356392        3.6505445637       -0.7630744061
 H         -0.5525082945        2.5138771516       -2.1425650782
 H          3.7294576981       -0.1978321952       -0.7136636228
 H          3.1555438988       -1.8689959958       -0.4370288974
 H          3.6552884151       -0.8543457873        0.9482061885
  27
        -46.44596004
 C         -1.7083342021       -2.3538969007        1.0023536190
 C         -1.9153211086       -1.7183000138       -0.3615915043
 N         -1.6727095580       -0.2760644191       -0.3393525577
 C         -1.4510989840        0.4556279765       -1.4787835451
 C         -1.0237967521        1.6804730255       -1.0881501057
 N         -1.0016401642        1.6726076748        0.2817744777
 C         -1.3507523287        0.4639012040        0.7181635924
 C         -0.3444495023        2.6784850250        1.0952815269
 C          3.1880035081       -0.9332807677        0.1113725475
 S          1.5435132905       -0.2750395611       -0.1094934508
 O          1.7158411014        1.1279443200       -0.4966063732
 O          0.9139408792       -1.0982585039       -1.1453663170
 O          0.8870862892       -0.4182030961        1.2085715094
 H         -0.7003328480       -2.1445262163        1.3604983377
 H         -1.8300264785       -3.4322817089        0.9052914311
 H         -2.4340073742       -1.9853112216        1.7278255235
 H         -2.9312764260       -1.8913133463       -0.7333098947
 H         -1.1962270575       -2.1327224986       -1.0758444073
 H         -1.5839056339        0.0308779773       -2.4572947899
 H         -0.7093333152        2.5373668857       -1.6558518699
 H         -1.4102918211        0.1731983643        1.7501462154
 H         -0.6192676911        2.5317283445        2.1381906794
 H         -0.6438451978        3.6709692126        0.7614989136
 H          0.7335189200        2.5472287329        0.9694907535
 H          3.0953676887       -1.9698590770        0.4190310202
 H          3.6854414714       -0.3442442774        0.8750772192
 H          3.7066867457       -0.8552690022       -0.8386963162
  27
        -46.44589545
 C          0.9004636664        2.8050761852        1.0421395860
 C          0.9242328464        2.1382212399       -0.3242486873
 N          1.4498210520        0.7766672801       -0.2462900252
 C          2.2316027447        0.1909215292       -1.2020201206
 C          2.3546700772       -1.1202327906       -0.8657977259
 N          1.6447971813       -1.2969243616        0.2889217117
 C          1.0856870122       -0.1417985151        0.6430271367
 C          1.3623816466       -2.5688012674        0.9297108889
 C         -3.4965989378       -0.3111481140       -0.4038557947
 S         -1.7423238267       -0.1802005798       -0.1054894945
 O         -1.5789027603        0.9308167242        0.8464727267
 O         -1.3387020114       -1.4736413148        0.4686737838
 O         -1.1204816348        0.0943896590       -1.4033755142
 H          0.1444956062        2.3399889212        1.6730441571
 H          0.6449718055        3.8564595372        0.9160711643
 H          1.8735076917        2.7316961045        1.5284050888
 H          1.5554730543        2.6913885898       -1.0246071612
 H         -0.0893004703        2.0591413523       -0.7324443747
 H          2.6264620076        0.7439860618       -2.0359221044
 H          2.8795629316       -1.9273303447       -1.3457734254
 H          0.4310465386        0.0078952932        1.4836850274
 H          1.4697693142       -2.4619106914        2.0083889020
 H          2.0536513082       -3.3211103659        0.5552140924
 H          0.3313777621       -2.8423651883        0.6922283828
 H         -3.6562431799       -1.1270314848       -1.1014447152
 H         -3.8353928096        0.6306297331       -0.8234338615
 H         -3.9828498535       -0.5108167785        0.5455183872
  27
        -46.44583327
 C         -3.0773114598       -1.8811167031        0.8370951269
 C         -2.1605378434       -1.5313993153       -0.3275984584
 N         -1.7641975762       -0.1300948083       -0.2638302387
 C         -2.0856591333        0.8424601637       -1.1696871239
 C         -1.4024258570        1.9591201150       -0.8052599887
 N         -0.6922657914        1.6398721953        0.3187886484
 C         -0.9070328073        0.3661451344        0.6263863820
 C          0.3263157830        2.4783383469        0.9264926901
 C          3.4068888643       -1.1677626570       -0.3859963938
 S          1.7970515692       -0.4643802614       -0.0735336382
 O          1.5951048591        0.5728009522       -1.0888257260
 O          0.8461222198       -1.5821632264       -0.1889756047
 O          1.8541536146        0.0823355979        1.2919071510
 H         -3.9766763610       -1.2653350411        0.8160681792
 H         -2.5651716337       -1.7220128559        1.7854138768
 H         -3.3646135078       -2.9292031086        0.7657336709
 H         -2.6637127495       -1.6931187360       -1.2835952742
 H         -1.2392837525       -2.1234237401       -0.2974248556
 H         -2.7558100601        0.6608288856       -1.9914751775
 H         -1.3601900529        2.9377389083       -1.2497761618
 H         -0.4414970427       -0.1736409011        1.4328377987
 H          0.5557688374        2.0919860697        1.9166399744
 H         -0.0321725204        3.5053174223        0.9834063510
 H          1.2199515994        2.4157808143        0.3024781939
 H          4.1411054333       -0.3733357240       -0.2987839550
 H          3.4007741027       -1.5826438373       -1.3887948234
 H          3.5825391189       -1.9420140097        0.3538061977
  27
        -46.44564735
 C         -1.6683221365        2.2927093065        0.9604247800
 C         -2.1457925126        1.5644925563       -0.2851809348
 N         -1.7664010424        0.1517941792       -0.2672593978
 C         -1.5841701056       -0.5882288928       -1.4079975917
 C         -0.9977062594       -1.7521993320       -1.0357338205
 N         -0.8413227348       -1.7005374168        0.3222825987
 C         -1.2825176343       -0.5263263392        0.7688533133
 C         -0.0037855960       -2.5971664527        1.1003866642
 C          3.1351829411        1.0741393179       -0.0792601650
 S          1.5036512545        0.3524013437       -0.1399099745
 O          1.6816131090       -1.0103332132       -0.6485065582
 O          1.0156192402        0.3732001096        1.2573765035
 O          0.7104803459        1.2148382151       -1.0203845506
 H         -0.5963725488        2.1418831085        1.0865648873
 H         -2.1899989212        1.9432545038        1.8513676389
 H         -1.8638217432        3.3574890545        0.8376654418
 H         -1.6628605675        1.9936759071       -1.1679229751
 H         -3.2333178598        1.6338017718       -0.4001211897
 H         -1.8570785408       -0.2112143799       -2.3771304759
 H         -0.6486828793       -2.5869890307       -1.6159766016
 H         -1.2635989235       -0.2074590491        1.7941399948
 H         -0.6186917382       -3.2720285029        1.6975266661
 H          0.6296975968       -1.9848905875        1.7425844010
 H          0.6223310098       -3.1595111250        0.4112335386
 H          3.0415069482        2.0826206717        0.3104800465
 H          3.5316682217        1.0835432915       -1.0894657607
 H          3.7485972663        0.4609030960        0.5729265226
  27
        -46.44563975
 C         -1.7071439095       -2.5440318339        0.9903489903
 C         -1.6442157608       -1.8669886397       -0.3696377648
 N         -1.6711039621       -0.4114088098       -0.2476667929
 C         -2.1632565404        0.4360737624       -1.2021456054
 C         -1.8113803463        1.6951775746       -0.8336294897
 N         -1.1167800741        1.5823251044        0.3387694343
 C         -1.0217885060        0.2984758222        0.6706493454
 C         -0.3739612390        2.6523336453        0.9795181619
 C          3.3924509479       -0.4918076312       -0.5394960500
 S          1.6910944787       -0.1879983224       -0.0952302810
 O          1.1581982058       -1.4865879681        0.3503615570
 O          1.7328815604        0.8037376933        0.9916741976
 O          1.0290871229        0.3150923647       -1.3015756544
 H         -0.7750947412       -2.3826762491        1.5303074087
 H         -1.8403366109       -3.6153423574        0.8446710900
 H         -2.5396911536       -2.1597723092        1.5798824971
 H         -2.4879830033       -2.1602136186       -1.0002693870
 H         -0.7048828465       -2.1225269678       -0.8724665922
 H         -2.7101997735        0.0783859111       -2.0566432006
 H         -1.9920363799        2.6458830291       -1.3032857170
 H         -0.4838102644       -0.0883801996        1.5175287007
 H         -0.9842133132        3.5542100729        1.0143885083
 H          0.5348038933        2.8252348365        0.4011121744
 H         -0.0968514984        2.3346810993        1.9818854332
 H          3.8247631552        0.4477233146       -0.8684708038
 H          3.4032146553       -1.2253810047       -1.3392242238
 H          3.9048298538       -0.8683163381        0.3398833849
  27
        -46.44542529
 C         -2.4220155475       -2.6042132471       -0.5524398179
 C         -1.1686544870       -1.8850333286       -0.0741054864
 N         -1.4237210369       -0.4554981471        0.0666832622
 C         -2.0939566240        0.1265136212        1.1069202191
 C         -2.0013143994        1.4708617428        0.9329758683
 N         -1.2826025369        1.6709307117       -0.2137385960
 C         -0.9246722722        0.4916764864       -0.7182047097
 C         -0.7657637722        2.9430777611       -0.6852181220
 C          3.5744704532       -0.3998194884        0.3312416907
 S          1.8217815163       -0.2040019670        0.0608979994
 O          1.1569311875       -0.7962699169        1.2239090271
 O          1.5962488513        1.2457564964       -0.0610104701
 O          1.5256737001       -0.9202535538       -1.1909126248
 H         -2.2080588102       -3.6671920894       -0.6542149651
 H         -2.7381814388       -2.2146051675       -1.5201827126
 H         -3.2375070251       -2.4763487433        0.1597523519
 H         -0.3452075308       -1.9985134619       -0.7830834289
 H         -0.8396373791       -2.2517314319        0.9012104789
 H         -2.5626328134       -0.4530685454        1.8824721959
 H         -2.3793641012        2.2881223750        1.5217144812
 H         -0.3071050753        0.3329886593       -1.5858890303
 H         -1.2940869483        3.7529531726       -0.1863104419
 H         -0.9019940038        3.0133605674       -1.7638152691
 H          0.3002386816        2.9768433049       -0.4463044729
 H          4.0941073723        0.0279666070       -0.5200147559
 H          3.7815902285       -1.4614662844        0.4194726438
 H          3.8315438132        0.1234109670        1.2466225969
  27
        -46.44542319
 C          3.5745197410        1.5638917395       -0.3477137552
 C          2.0671064273        1.4582592228       -0.1649004203
 N          1.6583792543        0.0683366609       -0.0035264246
 C          1.9220667633       -0.7216392093        1.0829259135
 C          1.1998200452       -1.8605126802        0.9232777819
 N          0.5201947069       -1.7379706707       -0.2576915335
 C          0.7938256481       -0.5557491492       -0.7976884907
 C         -0.5596150646       -2.6085037711       -0.6875131058
 C         -3.2677571863        1.4024836544        0.4033239632
 S         -1.7251498904        0.5733992984        0.0591422936
 O         -1.4788792470       -0.3253461863        1.1908688211
 O         -1.9340310904       -0.1536093062       -1.2046586599
 O         -0.7199852396        1.6407255061       -0.0657275196
 H          3.8475457080        2.6095932999       -0.4822679871
 H          3.8914749607        1.0011431782       -1.2257591847
 H          4.0984260163        1.1747993716        0.5250811400
 H          1.5317256556        1.8526905625       -1.0304879520
 H          1.7278153443        2.0017704686        0.7209470635
 H          2.5807149839       -0.4092604095        1.8739332723
 H          1.1057297811       -2.7306438303        1.5485043502
 H          0.3555640347       -0.1559092681       -1.6954175927
 H         -1.4213492576       -2.3974618188       -0.0513100621
 H         -0.2546816606       -3.6497104163       -0.5898215411
 H         -0.8115959584       -2.3731671655       -1.7187303865
 H         -3.4775789518        2.0743989842       -0.4225955459
 H         -3.1508949769        1.9525652192        1.3315297691
 H         -4.0406797727        0.6461563487        0.4948349202
  27
        -46.44541048
 C          3.2495864323        1.7561653933       -0.4287216054
 C          1.7675830201        1.5395988170       -0.1565494090
 N          1.4923650154        0.1345958176        0.1154726330
 C          1.3558323504       -0.4133513703        1.3616178667
 C          0.8514785324       -1.6606624672        1.1916269100
 N          0.6969070365       -1.8446772400       -0.1583873908
 C          1.0542669421       -0.7319885544       -0.7939730247
 C         -0.0553722619       -2.9322644569       -0.7558744447
 C         -3.1850830598        1.3554953723       -0.1247721504
 S         -1.6034657435        0.5434844729        0.0367893933
 O         -1.8980660284       -0.8472589971        0.3965175214
 O         -0.9658822661        0.6619952486       -1.2910364324
 O         -0.8758616283        1.2769339758        1.0771375668
 H          3.8442711042        1.4548431964        0.4337293438
 H          3.4300215665        2.8112607096       -0.6295875412
 H          3.5673317923        1.1734925081       -1.2935173510
 H          1.1530927581        1.8240989000       -1.0147833486
 H          1.4306274974        2.1063938559        0.7141800915
 H          1.5885833139        0.1405525626        2.2529513585
 H          0.5712049506       -2.4160839000        1.9034747510
 H          1.0127556620       -0.5695087001       -1.8555930468
 H         -1.1170986244       -2.7124283788       -0.6150539155
 H          0.2033423652       -3.8678470311       -0.2622799205
 H          0.1765010454       -2.9898873443       -1.8179410483
 H         -3.0041555425        2.3905096550       -0.3964098822
 H         -3.6923071482        1.2883026192        0.8323346767
 H         -3.7471527527        0.8431885037       -0.8989772238
  27
        -46.44516596
 C          2.8439382551        2.3117047188       -0.3589730539
 C          1.4470899667        1.7239182363       -0.2291335824
 N          1.5012627654        0.2770368949       -0.0456544005
 C          2.0293558610       -0.3603902202        1.0439701322
 C          1.6921106439       -1.6713928901        0.9367131669
 N          0.9661795107       -1.7984055573       -0.2169356370
 C          0.8443119428       -0.6047691378       -0.7904796556
 C          0.2133095576       -2.9751753266       -0.6105179737
 C         -3.4263401986        0.8809998288        0.4092180623
 S         -1.7460509336        0.3918635107        0.0597327917
 O         -1.8051291833       -1.0483510532       -0.2390005949
 O         -1.3303425675        1.1877730856       -1.1064993734
 O         -0.9689742399        0.7017237685        1.2632940336
 H          3.3686002985        1.8663231920       -1.2045709355
 H          3.4266541639        2.1376914146        0.5455420798
 H          2.7645363543        3.3858339190       -0.5208918207
 H          0.8498748014        1.9151857565       -1.1227740874
 H          0.9122811999        2.1303895034        0.6346572125
 H          2.5813310992        0.1633444135        1.8040890338
 H          1.8995992346       -2.5105006130        1.5771612441
 H          0.2769168361       -0.3832254975       -1.6778498786
 H          0.8490302519       -3.8582438597       -0.5543785138
 H         -0.1546718645       -2.8294616449       -1.6234923107
 H         -0.6389452178       -3.0717048979        0.0638584678
 H         -3.7686234280        0.3098336720        1.2662158045
 H         -4.0273359568        0.6633486583       -0.4677524903
 H         -3.4263498208        1.9443510128        0.6261719182
  27
        -46.44504224
 C         -2.0156801079       -2.5485509128       -0.1965883258
 C         -1.8137361832       -1.4694969550        0.8522599798
 N         -1.6282985860       -0.1428873512        0.2594533658
 C         -1.6812801544        0.1967374577       -1.0647397092
 C         -1.2019909331        1.4620749559       -1.1699578417
 N         -0.8672536032        1.8660841246        0.0950375533
 C         -1.0933301637        0.8678128106        0.9434930023
 C         -0.1092075786        3.0637471405        0.4053256437
 C          3.1567881737       -1.1378976963        0.0200600703
 S          1.5395161168       -0.3872874279       -0.0715332625
 O          1.0427390304       -0.3630513778        1.3204332153
 O          1.7484186428        0.9560118208       -0.6188367978
 O          0.7382128467       -1.2546677705       -0.9396442248
 H         -2.9280408146       -2.3832033537       -0.7697118303
 H         -2.0911955203       -3.5109640521        0.3088030322
 H         -1.1599949552       -2.5733786554       -0.8704524279
 H         -0.9011903042       -1.6704667262        1.4242921059
 H         -2.6651452567       -1.4212214388        1.5400392940
 H         -2.0277571285       -0.4784752363       -1.8245703564
 H         -1.0545026701        2.0936670412       -2.0274712141
 H         -0.9045980109        0.8835559220        2.0014919237
 H         -0.4854901108        3.8953722301       -0.1885895795
 H          0.9369180887        2.8660095990        0.1567005616
 H         -0.2050663826        3.2851785797        1.4668682998
 H          3.5614839017       -1.1787269755       -0.9861144111
 H          3.0410343135       -2.1349466077        0.4326619416
 H          3.7762422867       -0.5209335320        0.6629860612
  27
        -46.44504022
 C          1.8296167281        2.6569680329       -0.2002033373
 C          1.7452215257        1.5668385095        0.8537337956
 N          1.6247139517        0.2313950601        0.2642461078
 C          1.7242668903       -0.1125884888       -1.0558719971
 C          1.3131434982       -1.4017732609       -1.1627297779
 N          0.9719388990       -1.8149049603        0.0973236631
 C          1.1293339275       -0.8020620209        0.9439141262
 C          0.2832103546       -3.0547959523        0.4035552504
 C         -3.2075342759        0.9982518463       -0.0014443204
 S         -1.5659473699        0.2996013761       -0.0716160133
 O         -0.8023673098        1.1485732880       -0.9903322087
 O         -1.0579776201        0.3624128731        1.3148964368
 O         -1.7331919858       -1.0755604925       -0.5491207872
 H          2.7387501106        2.5684234871       -0.7950048815
 H          1.8353452439        3.6235767670        0.3027700339
 H          0.9593826456        2.6068153018       -0.8538001386
 H          0.8461528463        1.7060797692        1.4638252557
 H          2.6261669473        1.5764937176        1.5051691508
 H          2.0534916565        0.5749521675       -1.8123828522
 H          1.2198818598       -2.0456911185       -2.0187968010
 H          0.9185420695       -0.8215996129        1.9977107554
 H          0.7135403707       -3.8636020061       -0.1852260665
 H         -0.7709826873       -2.9201565512        0.1468778132
 H          0.3830869068       -3.2682314332        1.4662898893
 H         -3.6259732343        0.9654519404       -1.0022854329
 H         -3.1220364688        2.0214101858        0.3502052134
 H         -3.7967845944        0.3994670340        0.6855683202
  27
        -46.44490265
 C         -2.5609021325       -2.3490221536       -0.7764469001
 C         -1.5033942102       -1.8096499804        0.1771773792
 N         -1.5410420695       -0.3523926044        0.2071530261
 C         -2.0527161566        0.4144710992        1.2158440528
 C         -1.7425255236        1.7053333391        0.9267746116
 N         -1.0548316023        1.6891470954       -0.2564900051
 C         -0.9292321791        0.4336042132       -0.6735890918
 C         -0.3572416336        2.8208939165       -0.8393430142
 C          3.4787842589       -0.6981168164        0.3841144401
 S          1.7695975921       -0.3081835081        0.0507345945
 O          1.0611468465       -0.4176433578        1.3276328083
 O          1.7724451002        1.0577414512       -0.4978836374
 O          1.3166031230       -1.3048950959       -0.9351762581
 H         -2.3845800149       -1.9780462988       -1.7857760575
 H         -3.5582823056       -2.0432377555       -0.4593052810
 H         -2.5120465966       -3.4369071040       -0.7889393826
 H         -0.4959791602       -2.0949561759       -0.1438745486
 H         -1.6705653160       -2.1650668338        1.1961024977
 H         -2.5751022655       -0.0147748736        2.0525048616
 H         -1.9458531930        2.6183916984        1.4580189115
 H         -0.3874026660        0.1052361021       -1.5439241360
 H          0.0101454117        2.5327098247       -1.8213869184
 H          0.4947624511        3.0599326253       -0.2017481819
 H         -1.0317103499        3.6737155618       -0.9134347588
 H          4.0268018837       -0.6229386812       -0.5495030167
 H          3.5200726661       -1.7083103077        0.7785706085
 H          3.8491395523        0.0179225683        1.1107155202
  27
        -46.44457603
 C          3.6684902828       -1.2536682411       -0.1427838500
 C          2.1812079659       -1.2032441804       -0.4618099956
 N          1.6067214384        0.0786589267       -0.0750118111
 C          1.4219668663        0.4885866571        1.2216255382
 C          0.6216132792        1.5812530638        1.1772876911
 N          0.3373769399        1.8157506368       -0.1419740748
 C          0.9095837647        0.8702044830       -0.8847116801
 C         -0.7184745606        2.6909386691       -0.6216701125
 C         -3.0284102943       -1.6811745201       -0.0844672834
 S         -1.5574142160       -0.6815152529        0.0677755723
 O         -1.9480424726        0.5043373938        0.8355665763
 O         -0.5658205421       -1.5218883130        0.7456676887
 O         -1.1667849582       -0.3502251139       -1.3200259025
 H          4.2005123305       -0.4658857886       -0.6764834689
 H          4.0695185251       -2.2192709877       -0.4479367995
 H          3.8370109663       -1.1273084972        0.9262067850
 H          1.6251868136       -1.9733457941        0.0832836515
 H          2.0046333934       -1.3339307128       -1.5319944575
 H          1.8394182083       -0.0488320190        2.0535959829
 H          0.2019014604        2.1835190405        1.9624661996
 H          0.8490784549        0.7839022670       -1.9541660503
 H         -1.3209790738        2.1240658924       -1.3317996961
 H         -0.2942860692        3.5761624288       -1.0977519862
 H         -1.3373823024        2.9728685996        0.2272435910
 H         -3.3576460939       -1.9413409296        0.9163746305
 H         -2.7719733580       -2.5697691673       -0.6521448854
 H         -3.7811427939       -1.0940678206       -0.6005094052
