  24
        -47.13249079
 B          1.9379552084        0.2077019842       -0.1155653841
 F          3.1231244822        0.5383318685       -0.6983385350
 F          2.0245691826       -0.9995887948        0.6238237041
 F          0.9113207641        0.0160606831       -1.0832610432
 F          1.4766047107        1.2213697421        0.7647571225
 C         -0.9612945834        2.5871485938       -0.5227240558
 C         -1.4605352955        1.8654767058        0.7242342840
 N         -1.5892262015        0.4405787174        0.4334394543
 C         -2.4827040221       -0.1265231275       -0.4379633487
 C         -2.0999933777       -1.4191723621       -0.6078420634
 N         -0.9862306034       -1.6080058116        0.1658708401
 C         -0.6812999971       -0.4671053606        0.7751098929
 C         -0.0902082307       -2.7508204533        0.1195233322
 H         -0.0179823421        2.1466565593       -0.8427946180
 H         -0.8043000230        3.6388392303       -0.2880710829
 H         -1.6866598789        2.5051961452       -1.3316234389
 H         -2.4323503080        2.2464262009        1.0516065543
 H         -0.7326035057        1.9645585097        1.5328311482
 H         -3.3064654744        0.4253068942       -0.8554441171
 H         -2.5232876924       -2.2078025296       -1.2049092153
 H          0.1559095381       -0.3086079879        1.4325466992
 H          0.4221512027       -2.8361332765        1.0756554399
 H          0.6500922058       -2.5624977048       -0.6603433290
 H         -0.6578968667       -3.6538662199       -0.0973289229
  24
        -47.13237987
 B         -1.9964298273        0.1073954718       -0.1109044191
 F         -1.9048964606        1.3442541555        0.5752033138
 F         -1.7221938207       -0.9251149380        0.8222243217
 F         -0.9254066284        0.0884860739       -1.0514403716
 F         -3.2024290321       -0.0575378092       -0.7190352261
 C          0.4493121699       -2.7072953580       -0.5195266820
 C          1.0260747988       -2.0611995140        0.7350192231
 N          1.4549476972       -0.6998702812        0.4261694531
 C          2.5048848279       -0.3498507163       -0.3825740653
 C          2.4227607277        0.9924499085       -0.5754737997
 N          1.3215377241        1.4248728223        0.1146353816
 C          0.7391142524        0.3845204367        0.7028528219
 C          0.7635973619        2.7669390557        0.1048907399
 H          1.2082190701       -2.7837157530       -1.2977046773
 H         -0.3812054000       -2.1068383212       -0.8878098398
 H          0.0880982370       -3.7045274798       -0.2728337344
 H          1.8861821465       -2.6184627023        1.1178044894
 H          0.2576945211       -1.9896356546        1.5082365951
 H          3.2156422717       -1.0715707812       -0.7449628789
 H          3.0447649775        1.6638850556       -1.1410283420
 H         -0.1491973576        0.4185936610        1.3100054826
 H          1.0717227419        3.2720825664       -0.8087562165
 H          1.1209886600        3.3225256399        0.9732874152
 H         -0.3234628571        2.6790408985        0.1387857390
  24
        -47.13228374
 B          1.9755668402       -0.0099712691       -0.1150373138
 F          1.6433509339        1.0210132685        0.8017454201
 F          3.1755888071        0.2092348745       -0.7186057315
 F          0.9119136362       -0.0615101178       -1.0623167800
 F          1.9441735881       -1.2400645771        0.5874919705
 C         -0.6024516258        2.6850904337       -0.5109760193
 C         -1.1614916934        2.0107222477        0.7368082331
 N         -1.4972152882        0.6237124713        0.4275624202
 C         -2.4942178504        0.2054269102       -0.4148115913
 C         -2.3195409181       -1.1296690172       -0.5987267624
 N         -1.2212623713       -1.4900590423        0.1340848018
 C         -0.7253640789       -0.4125476371        0.7353750339
 C         -0.5481344611       -2.7781218833        0.1188980719
 H         -1.3526565874        2.7182779376       -1.3005177032
 H          0.2651274168        2.1302931515       -0.8652033533
 H         -0.3002484926        3.7011428939       -0.2617248718
 H         -2.0618242059        2.5149100638        1.1002539756
 H         -0.4048446652        1.9911039309        1.5245117612
 H         -3.2366770540        0.8791495826       -0.8048725059
 H         -2.8782465446       -1.8405332426       -1.1819487090
 H          0.1464117630       -0.3890619425        1.3665058886
 H         -1.0908654905       -3.4576729906       -0.5346873378
 H         -0.5100247520       -3.1815674672        1.1308240337
 H          0.4682752544       -2.6212065114       -0.2477445592
  24
        -47.13079501
 B         -1.3530771750       -1.1350760364       -0.1278491913
 F         -2.0406416304       -2.3130879868       -0.0467419282
 F         -0.7540310289       -0.8281246504        1.1507824876
 F         -2.1888507997       -0.0547980458       -0.4602398806
 F         -0.3031207420       -1.2037539265       -1.0617579862
 C          2.1930304059       -1.7277683987        0.2689057475
 C          2.7039292028       -0.2936760879        0.3644183082
 N          1.6258984766        0.6335369516        0.0385225017
 C          1.2967478768        1.0577732246       -1.2223057249
 C          0.1346706245        1.7504887929       -1.1137779659
 N         -0.2201473745        1.7272790611        0.2070776958
 C          0.6720558455        1.0127261381        0.8870939368
 C         -1.4809802901        2.1972817693        0.7554155311
 H          2.9932538997       -2.4148692513        0.5407260320
 H          1.8594227945       -1.9393818091       -0.7452671381
 H          1.3473878018       -1.8672950399        0.9404385633
 H          3.5231711841       -0.1160255602       -0.3377942235
 H          3.0494642053       -0.0654620101        1.3771436727
 H          1.9027610266        0.8233881813       -2.0790029692
 H         -0.4740210643        2.2318367513       -1.8581524918
 H          0.6508977343        0.8159241596        1.9435915522
 H         -1.3325872905        3.1438481096        1.2780644579
 H         -1.8551215926        1.4362991424        1.4390132808
 H         -2.1864257229        2.3202157722       -0.0628089827
  24
        -47.13069188
 B         -2.0251795384        0.2623697247        0.2135969994
 F         -3.2808467689        0.3311924657        0.7328556313
 F         -1.8563855032       -0.8711865384       -0.6276648063
 F         -1.0356496459        0.1525218036        1.2266774405
 F         -1.7019561441        1.4115945753       -0.5555428512
 C          0.5092338980       -2.7983762052       -1.0106871354
 C          0.7328957968       -2.1347818748        0.3404491517
 N          1.3328945223       -0.8110920327        0.1825360622
 C          2.4050399629       -0.3189827938        0.8748578374
 C          2.4885880725        1.0065908112        0.5850103481
 N          1.4592515556        1.2870480727       -0.2736776612
 C          0.7650753067        0.1767851633       -0.5017057127
 C          1.0819600449        2.5976571084       -0.7763883341
 H          0.1681676402       -3.8202417571       -0.8504196293
 H          1.4318938721       -2.8177487507       -1.5906575995
 H         -0.2568824309       -2.2613548480       -1.5679645686
 H          1.4003789723       -2.7276505318        0.9703483413
 H         -0.2225992758       -1.9842942356        0.8544059005
 H          3.0097325778       -0.9398236908        1.5124134592
 H          3.1797617098        1.7606632886        0.9182294287
 H         -0.1096675095        0.0962797095       -1.1236434825
 H          1.4725464678        3.3607955207       -0.1057003545
 H         -0.0077676418        2.6454043987       -0.8082761852
 H          1.4911997911        2.7408050012       -1.7776790834
  24
        -47.13061681
 B          1.9038828713        0.8179446698        0.1705281599
 F          3.0358421369        1.5083833183        0.4875974228
 F          1.9838855793        0.2489506570       -1.1337266977
 F          0.7583516132        1.6668972110        0.1753303874
 F          1.6571480979       -0.2414365461        1.0673950821
 C         -3.1222690870        1.5323929048       -0.8340787600
 C         -2.1555531956        1.3030140952        0.3205763453
 N         -1.5728037982       -0.0312748730        0.2391215933
 C         -1.8294206239       -1.0817351938        1.0767070702
 C         -0.9867697635       -2.0853148270        0.7166155106
 N         -0.2487299029       -1.6235851077       -0.3383544616
 C         -0.6049485609       -0.3731548413       -0.6087138868
 C          0.9138016314       -2.2861645369       -0.9047603463
 H         -3.5453207793        2.5327875818       -0.7552670162
 H         -3.9314733882        0.8025604742       -0.8071989297
 H         -2.6022909762        1.4450834710       -1.7874762481
 H         -2.6678774854        1.3860239107        1.2817711505
 H         -1.3257082749        2.0161133709        0.2892867526
 H         -2.5708102896       -1.0266096480        1.8543849827
 H         -0.8513923132       -3.0728306756        1.1212676324
 H         -0.1667499656        0.2566762594       -1.3632175881
 H          1.7602392107       -2.0909915882       -0.2438036213
 H          1.1208472072       -1.8574916214       -1.8826048012
 H          0.7235522650       -3.3555971982       -0.9818234454
  24
        -47.13061170
 B         -1.9472319504        0.3975722874        0.2214049337
 F         -3.2384829627        0.5988955890        0.6062831467
 F         -1.4120058638        1.5394186546       -0.4391872627
 F         -1.8326567499       -0.6957256378       -0.6858030490
 F         -1.1035995392        0.1065010840        1.3155939319
 C          0.3143670050       -2.8175676567       -1.0515298457
 C          0.5218468960       -2.1778603684        0.3130465131
 N          1.2080004141       -0.8919253282        0.1972566149
 C          2.2023046367       -0.4475509507        1.0233405015
 C          2.4219823734        0.8577337999        0.7127607016
 N          1.5519139830        1.1733986412       -0.2940579333
 C          0.8157782084        0.1050439063       -0.5893007955
 C          1.3392055234        2.4911617477       -0.8687777687
 H          1.2536671190       -2.8724992242       -1.6019246435
 H         -0.4096512601       -2.2437393447       -1.6279341800
 H         -0.0756110368       -3.8250269619       -0.9125613746
 H          1.1268147555       -2.8148901583        0.9630406540
 H         -0.4419657089       -1.9750746139        0.7922064031
 H          2.6623576014       -1.0831339013        1.7594503812
 H          3.1110402436        1.5753896493        1.1221087904
 H          0.0239910719        0.0669767744       -1.3170743283
 H          0.2784369567        2.7321578663       -0.7764786775
 H          1.6256898305        2.4827782724       -1.9210035797
 H          1.9413017100        3.2167670572       -0.3258881051
  24
        -47.13055371
 B          1.1751151244        1.3154257585       -0.0932720726
 F          1.7129932449        2.5578917110        0.0944025424
 F          0.1503853534        1.3284659760       -1.0570821778
 F          0.5881700149        0.8475308185        1.1401281220
 F          2.1442764746        0.3715420814       -0.4758735682
 C         -2.3661329933        1.4767919738        0.3064015111
 C         -2.6810452854       -0.0149905978        0.3406484996
 N         -1.4928118685       -0.7900489062       -0.0003628159
 C         -1.0764392457       -1.0898181560       -1.2709791322
 C          0.1285203659       -1.7028845343       -1.1574321867
 N          0.4198309393       -1.7608869579        0.1796676835
 C         -0.5468014696       -1.1551663458        0.8636191482
 C          1.6895626910       -2.1890154951        0.7384849604
 H         -2.0592378242        1.7728110388       -0.6948256022
 H         -1.5523494098        1.7020935392        0.9933610640
 H         -3.2543033993        2.0372069720        0.5956574414
 H         -3.4636352569       -0.2701918695       -0.3796867148
 H         -3.0054947424       -0.3242831697        1.3387679691
 H         -1.6591884944       -0.8324265791       -2.1369996212
 H          0.8039185887       -2.0818861697       -1.9033172636
 H         -0.5848076919       -1.0347371136        1.9311627741
 H          1.5605790518       -2.3983774291        1.7989653217
 H          2.4095460265       -1.3791032761        0.6011345751
 H          2.0290046640       -3.0828651170        0.2171477496
  24
        -47.13046037
 B         -2.0391094653        0.1253450630        0.2285287288
 F         -3.2955208326        0.1332865868        0.7512420612
 F         -1.6364711881        1.4163177025       -0.2079481583
 F         -1.9278401518       -0.7455652098       -0.8869427357
 F         -1.0737051682       -0.3108967230        1.1763019099
 C          0.5908777345       -2.7362041098       -0.9578478999
 C          1.0771640947       -2.1139546257        0.3425852429
 N          1.4836078679       -0.7223871792        0.1497722300
 C          2.5158391360       -0.0952274046        0.7931491830
 C          2.4134427361        1.2295623159        0.5069694615
 N          1.3200157811        1.3728958017       -0.3047707375
 C          0.7615036819        0.1835860586       -0.5028003541
 C          0.7316939291        2.6292503452       -0.7367957632
 H         -0.3494350241       -2.2820263041       -1.2683640897
 H          0.4240570604       -3.8005593830       -0.7970771988
 H          1.3307060752       -2.6087829493       -1.7480203273
 H          1.9363418557       -2.6556639183        0.7467369004
 H          0.2708509082       -2.1029401451        1.0844138523
 H          3.2271600644       -0.6329434058        1.3952458998
 H          3.0184301324        2.0666420617        0.8081509596
 H         -0.1253851936       -0.0071692026       -1.0838611268
 H          0.0908525379        3.0038243528        0.0625243207
 H          0.1184741150        2.4423148479       -1.6156163026
 H          1.5209369216        3.3452782688       -0.9613584675
  24
        -47.13044878
 B          1.9278936100       -0.1626257730       -0.2299090960
 F          3.2292017458       -0.2346636616       -0.6277894338
 F          1.0442891930       -0.0154206572       -1.3215175618
 F          1.7017341088        0.9489803900        0.6326792737
 F          1.5346134278       -1.3300001157        0.4855081140
 C         -0.7015747276        2.7940864172        1.0220643257
 C         -0.8478562897        2.1105852487       -0.3287739913
 N         -1.3310443276        0.7382581924       -0.1836665796
 C         -2.2018045079        0.1137246133       -1.0336271586
 C         -2.1984679914       -1.2054185132       -0.7066861755
 N         -1.3248235362       -1.3487797093        0.3369949770
 C         -0.7978968283       -0.1649903007        0.6331885866
 C         -0.8509979221       -2.6068875555        0.8864774657
 H          0.1183223617        2.3466331053        1.5818326786
 H         -1.6218641945        2.7127952581        1.6006229492
 H         -0.4752834010        3.8473604029        0.8613041614
 H          0.1233875843        2.0440222758       -0.8314781788
 H         -1.5557838398        2.6425068591       -0.9693238493
 H         -2.7412586921        0.6490117688       -1.7951744879
 H         -2.7351388849       -2.0391679676       -1.1240239075
 H         -0.0522420586        0.0197061158        1.3860852151
 H         -0.0708697988       -2.9939461885        0.2291571737
 H         -1.6776709431       -3.3122988608        0.9569208416
 H         -0.4207669650       -2.4188351927        1.8677776686
  24
        -47.13039451
 B          1.9874557547       -0.0979124185        0.2302377640
 F          1.0164507037        0.0689868539        1.2506683198
 F          3.2539792858       -0.1126271860        0.7295023919
 F          1.7896885169        0.9665665600       -0.6902643771
 F          1.6732557402       -1.3073661825       -0.4495966555
 C         -0.7409620998        2.7634037388       -0.9896288939
 C         -1.0020326100        2.0829522281        0.3458993956
 N         -1.4286750599        0.6962898368        0.1630079474
 C         -2.3828500412        0.0480112808        0.8986496865
 C         -2.2903145062       -1.2728807759        0.5912769053
 N         -1.2802217863       -1.3933949784       -0.3253231815
 C         -0.7613140317       -0.1940724127       -0.5645435617
 C         -0.6995470310       -2.6355248690       -0.8054247412
 H         -0.5628830251        3.8237683932       -0.8158351811
 H         -1.5964595779        2.6515837440       -1.6556654151
 H          0.1430586075        2.3377758360       -1.4623386387
 H         -1.7845975816        2.5976354074        0.9090754159
 H         -0.0836688955        2.0467653044        0.9428634163
 H         -3.0384035865        0.5695360260        1.5738759425
 H         -2.8500180491       -2.1215511726        0.9432610376
 H          0.0664843372        0.0140999792       -1.2200574972
 H          0.0458847151       -2.9683968332       -0.0814593811
 H         -0.2026484200       -2.4446641611       -1.7543228012
 H         -1.4809963871       -3.3847481243       -0.9226712245
  24
        -47.13038533
 B          1.8146620650        0.6635192326        0.2545514668
 F          1.9476724729        0.0840737248       -1.0397436780
 F          1.4092791126       -0.3681195919        1.1264433287
 F          0.7468365545        1.6071110805        0.1754170498
 F          2.9720141952        1.2573008120        0.6618638506
 C         -2.0444645400        2.1776864094       -0.9429250051
 C         -2.0661843516        1.4017800195        0.3645374482
 N         -1.6451270049        0.0144778854        0.1755580198
 C         -2.0082921613       -1.0293416846        0.9840055894
 C         -1.2459598313       -2.0937731995        0.6210699668
 N         -0.4433173906       -1.6733201874       -0.4031560715
 C         -0.6854203758       -0.3904896126       -0.6513941344
 C          0.6961858845       -2.3996988255       -0.9367827855
 H         -2.5992425797        1.6507548096       -1.7190969050
 H         -1.0167639328        2.3283861508       -1.2703851650
 H         -2.5019030761        3.1529023061       -0.7806990060
 H         -3.0678213626        1.3865395829        0.8029746298
 H         -1.3640765528        1.8509438449        1.0750853096
 H         -2.7644882109       -0.9285972305        1.7426271847
 H         -1.2080671482       -3.0984742005        1.0037084660
 H         -0.1715864610        0.2068806585       -1.3829105292
 H          0.4491875200       -3.4563172505       -1.0263685920
 H          1.5304715553       -2.2544057194       -0.2478283501
 H          0.9590938805       -1.9793621557       -1.9049439047
  24
        -47.13038125
 B          1.2525844150        1.2455870811       -0.1096542949
 F          1.8448716004        2.4705743100        0.0220122702
 F          2.1772066075        0.2439047704       -0.4485790783
 F          0.2265167925        1.2610623231       -1.0729246375
 F          0.6440937689        0.8614136358        1.1425063479
 C         -2.2876102372        1.5971670414        0.2744009516
 C         -2.6845521876        0.1274966913        0.3666345394
 N         -1.5467202209       -0.7206421954        0.0279278816
 C         -1.1834190316       -1.0927216975       -1.2401034911
 C          0.0014800887       -1.7448709856       -1.1361016856
 N          0.3365246461       -1.7494346431        0.1921097097
 C         -0.5882563519       -1.0850336455        0.8785032113
 C          1.5976537103       -2.2235412623        0.7335649872
 H         -3.1411213944        2.2171081309        0.5456782666
 H         -1.9707356518        1.8368691155       -0.7386866574
 H         -1.4579758849        1.8026159034        0.9484737864
 H         -3.4950674663       -0.1080175903       -0.3290242251
 H         -3.0034420701       -0.1301067192        1.3810321896
 H         -1.7853935714       -0.8538424932       -2.0983686494
 H          0.6375165019       -2.1826811959       -1.8844349250
 H         -0.5916257348       -0.9231475790        1.9411758821
 H          2.4061863273       -1.7980236294        0.1393721465
 H          1.6310937683       -3.3131551681        0.6943064907
 H          1.6843067153       -1.8791848893        1.7620856628
  24
        -47.13020656
 B          1.9225400910        0.3480616483        0.2363276979
 F          3.1473278865        0.6191634967        0.7659517944
 F          2.0058036487       -0.5559168253       -0.8578860229
 F          1.2772489647        1.5263963989       -0.2341800693
 F          1.0513639476       -0.2426699829        1.1851680321
 C         -1.5403125323        2.5149508917       -0.9670769255
 C         -1.5687181266        1.7809940376        0.3653182936
 N         -1.5622052867        0.3318583900        0.1738857006
 C         -2.2511120265       -0.5772621255        0.9314943609
 C         -1.7857671454       -1.8083688487        0.5929095191
 N         -0.8292900853       -1.6181186610       -0.3676942099
 C         -0.6947583020       -0.3162033275       -0.5971203768
 C          0.1154418686       -2.6121650109       -0.8473558083
 H         -2.3282697841        2.1528898994       -1.6272989493
 H         -0.5731494225        2.3772877506       -1.4483370486
 H         -1.6883660749        3.5790030610       -0.7874076673
 H         -2.4621713797        2.0345590560        0.9414076132
 H         -0.6739236370        2.0259823125        0.9478839916
 H         -3.0021593597       -0.2784493914        1.6415533632
 H         -2.0532624540       -2.7872602697        0.9501215719
 H          0.0075483445        0.1271117528       -1.2803662212
 H          0.4720167591       -2.3129969739       -1.8308362840
 H         -0.3667208458       -3.5871477671       -0.8908503024
 H          0.9611846700       -2.6295622112       -0.1573787006
  24
        -47.13008136
 B         -2.0129081600       -0.4291227166        0.1479404976
 F         -1.6093614018       -1.0572381419       -1.0652309998
 F         -1.1601535080       -0.8989957737        1.1644352520
 F         -3.3269279815       -0.6639541656        0.4241123469
 F         -1.7623788902        0.9673126814       -0.0205631818
 C          2.3986444200       -2.4248436309       -0.5939852914
 C          1.1221438982       -1.8034944884       -0.0446364677
 N          1.2637209729       -0.3545432781        0.0608280299
 C          1.9752894126        0.3047231403        1.0258514810
 C          1.7482235252        1.6321091258        0.8451298190
 N          0.9093080008        1.7457535358       -0.2297457623
 C          0.6133064288        0.5296713372       -0.6854400969
 C          0.2442106093        2.9576441982       -0.6762722283
 H          2.2673628324       -3.5032132822       -0.6704498312
 H          3.2435089506       -2.2193165601        0.0634956063
 H          2.6200619919       -2.0260815046       -1.5839541737
 H          0.8875948084       -2.1796148474        0.9540057219
 H          0.2686653052       -1.9973763402       -0.6976630255
 H          2.5651666572       -0.2156348907        1.7596372327
 H          2.1063845252        2.4907524688        1.3854752889
 H         -0.0539902724        0.3000089577       -1.4984139139
 H          0.6694360336        3.8123297299       -0.1543466139
 H         -0.8185073590        2.8590943070       -0.4442115109
 H          0.3772457579        3.0718928491       -1.7519463357
  24
        -47.12999496
 B         -2.0690750105       -0.5070076962        0.1594658271
 F         -1.1834855634        0.0834288227        1.1039639333
 F         -3.2621916710       -0.8403546300        0.7213196975
 F         -1.3915393566       -1.6351239213       -0.3713420012
 F         -2.2155931409        0.4354582605       -0.8918831333
 C          2.3913335125       -2.2638411168       -0.8677708372
 C          1.5863387461       -1.7177355491        0.3048395077
 N          1.4989378426       -0.2638710735        0.2234157719
 C          2.2501118342        0.6435041104        0.9220603620
 C          1.7613275817        1.8745221146        0.6193892232
 N          0.7278820607        1.6850346444       -0.2599133711
 C          0.5740489486        0.3829593117       -0.4791627809
 C         -0.1772400138        2.7040410603       -0.7652545947
 H          2.4432901053       -3.3490473873       -0.7933924057
 H          3.4034482799       -1.8589968518       -0.8610760400
 H          1.9124172482       -1.9984058959       -1.8096771270
 H          2.0571319828       -1.9736706528        1.2568954487
 H          0.5615191817       -2.1018237477        0.2883616984
 H          3.0513180406        0.3432784976        1.5742819976
 H          2.0554820280        2.8532861016        0.9554353494
 H         -0.1634800864       -0.0677219208       -1.1211647522
 H         -0.1873886528        3.5439522570       -0.0729383148
 H         -1.1727480135        2.2631758200       -0.8381298331
 H          0.1557687397        3.0394020716       -1.7487039644
  24
        -47.12924219
 B         -0.9565090366        1.4507501037       -0.1799037966
 F         -1.8505515928        0.4885326429       -0.6875098128
 F         -1.5277602889        2.6893875819       -0.1065199261
 F          0.2134804101        1.4576355035       -0.9641865675
 F         -0.5708219275        1.0035012761        1.1356386577
 C          2.5967200135        0.8496870553        0.9662587333
 C          2.5106369907       -0.0470558756       -0.2577771276
 N          1.2995427889       -0.8687204217       -0.2477012068
 C          0.7051607494       -1.3440576473       -1.3891163471
 C         -0.4909020033       -1.8675329644       -1.0256151617
 N         -0.5952002178       -1.7108387647        0.3309052456
 C          0.4813584193       -1.0690130971        0.7812757876
 C         -1.8265030185       -1.8621328337        1.0851710135
 H          1.6879209168        1.4444446592        1.0515713397
 H          3.4476427916        1.5194989515        0.8470917068
 H          2.7365130392        0.2682082688        1.8774684049
 H          3.3800308127       -0.7100141848       -0.3321191871
 H          2.4500686364        0.5679136829       -1.1600908738
 H          1.1714785053       -1.2473917276       -2.3531915911
 H         -1.2774268052       -2.3118104900       -1.6085344922
 H          0.6628028891       -0.8078385522        1.8071799281
 H         -2.4333843455       -0.9722884657        0.9012005714
 H         -1.5913876639       -1.9404702417        2.1450854654
 H         -2.3526511564       -2.7535801905        0.7477940648
  24
        -47.12843102
 B          2.2899955848        0.2444555243        0.1079756289
 F          3.6335802809        0.3905629358        0.2585723618
 F          1.6061912415        1.4901980871        0.1595209888
 F          1.7244057178       -0.5809031446        1.1147896813
 F          1.9509445523       -0.3552862541       -1.1345767871
 C         -1.2939619955        2.6244728009       -0.5945436931
 C         -2.1556970216        1.8006830321        0.3523134232
 N         -1.9374569548        0.3666151597        0.1599210480
 C         -2.8951955385       -0.6069496254        0.2598872047
 C         -2.2648000255       -1.7970275773        0.0692961417
 N         -0.9445603392       -1.5153575664       -0.1433204206
 C         -0.7584800509       -0.2020489984       -0.0840406603
 C          0.1268487425       -2.4790400031       -0.3436438663
 H         -0.2373998030        2.5188342920       -0.3503870974
 H         -1.5705484579        3.6735712968       -0.4973358450
 H         -1.4530301151        2.3104218523       -1.6254955647
 H         -3.2190756467        1.9931539956        0.1836051670
 H         -1.9189304715        2.0396344382        1.3947903349
 H         -3.9282069945       -0.3785143161        0.4556573522
 H         -2.6460162936       -2.8031775934        0.0664769453
 H          0.1848898357        0.3076362747       -0.2029256303
 H          0.7530677658       -2.4900458842        0.5493446939
 H          0.7325396820       -2.1581065967       -1.1904568556
 H         -0.3037571594       -3.4616237130       -0.5249186914
  24
        -47.12789335
 B         -1.5831141516       -1.0912190637        0.0928656361
 F         -1.2831588402       -0.6301225571       -1.2380010319
 F         -2.5527982994       -2.0526489844        0.0536088310
 F         -1.9936532920        0.0395092050        0.8282049457
 F         -0.3793370926       -1.5827564226        0.6377841926
 C          3.6985025588       -0.6810471395       -0.1490522852
 C          2.2250853472       -0.9194360984       -0.4461358876
 N          1.4218741534        0.2446678682       -0.0908058677
 C          1.2331230322        0.7035870877        1.1883665051
 C          0.2291446550        1.6129950941        1.1344341988
 N         -0.1709186550        1.6898534946       -0.1724183549
 C          0.5408743220        0.8298022728       -0.8970557640
 C         -1.3922827743        2.3269788571       -0.6357132540
 H          4.0647543304        0.1835624798       -0.7027989819
 H          4.2705909350       -1.5586666475       -0.4468915850
 H          3.8550659426       -0.5074996504        0.9150420752
 H          1.8278893961       -1.7622822032        0.1289440775
 H          2.0680135442       -1.1151675346       -1.5094613051
 H          1.8024372511        0.3288544149        2.0197962765
 H         -0.2514887394        2.1829474876        1.9090537885
 H          0.4397051958        0.6571351633       -1.9530983657
 H         -2.0187650514        2.5291724878        0.2301580579
 H         -1.9042566471        1.6245225853       -1.2931463431
 H         -1.1615435823        3.2520837079       -1.1657765669
