%chk=ncn2.chk
%mem=56Gb
%nprocs=12

#p pbepbe/def2tzvp/w06 opt scrf(cpcm,solvent=generic,read)

 ncn2

-1  1
C           1.05635        -0.17363        -0.00755
N          -0.10305        -0.23843        -0.00088
N           2.50475        -0.04456        -0.02084
C           3.11689        -1.35670         0.11428
N           3.64665        -2.38461         0.22014

eps=999.0

