%chk=c1c2im_ccn3.chk
%mem=56Gb
%nprocs=12

#wb97xd/def2svp/w06 opt(tight) freq temperature=360.6 scale=0.9788

 c1c2im_ccn3

0  1
C          -2.86656        -0.63012         0.56753
C          -2.71736         0.76532        -0.02799
N          -1.32480         1.01710        -0.38887
C          -0.73226         0.63715        -1.56484
C           0.58103         0.96798        -1.46822
N           0.76058         1.53010        -0.23202
C          -0.40136         1.54056         0.42014
C           2.04177         1.94706         0.31322
C           2.26066        -1.27290         0.03490
C           0.95099        -1.57531         0.41884
C           0.43422        -0.91875         1.53250
N          -0.03013        -0.26922         2.37924
C           0.03540        -2.09306        -0.50283
N          -0.77534        -2.41322        -1.26810
N           3.31517        -0.90501        -0.27875
H          -2.54575        -1.38346        -0.15186
H          -3.91168        -0.79815         0.82310
H          -2.25697        -0.72023         1.46604
H          -3.01940         1.53278         0.69018
H          -3.31884         0.87141        -0.93495
H          -1.28022         0.14031        -2.34581
H           1.39969         0.82819        -2.15198
H          -0.56076         1.88177         1.42804
H           2.31413         2.92173        -0.09361
H           2.79448         1.20289         0.03728
H           1.95824         2.00266         1.39728

