  26
        -42.88616890
 C         -2.8665597233       -0.6301181760        0.5675252943
 C         -2.7173563621        0.7653224155       -0.0279872397
 N         -1.3248025792        1.0170969792       -0.3888749182
 C         -0.7322578243        0.6371506162       -1.5648415090
 C          0.5810319953        0.9679793574       -1.4682240574
 N          0.7605806081        1.5301040959       -0.2320243111
 C         -0.4013621149        1.5405629405        0.4201390154
 C          2.0417716448        1.9470616786        0.3132155438
 C          2.2606625972       -1.2728973304        0.0349001349
 C          0.9509869818       -1.5753107021        0.4188429035
 C          0.4342245762       -0.9187546326        1.5324979204
 N         -0.0301264292       -0.2692157016        2.3792392386
 C          0.0354023311       -2.0930623331       -0.5028298222
 N         -0.7753447556       -2.4132178942       -1.2681017508
 N          3.3151725472       -0.9050069711       -0.2787458741
 H         -2.5457497904       -1.3834581357       -0.1518605735
 H         -3.9116777336       -0.7981479809        0.8231024492
 H         -2.2569659345       -0.7202334681        1.4660377582
 H         -3.0193952861        1.5327801570        0.6901766771
 H         -3.3188366483        0.8714121545       -0.9349515788
 H         -1.2802156367        0.1403068438       -2.3458101649
 H          1.3996868118        0.8281901873       -2.1519750131
 H         -0.5607605470        1.8817706187        1.4280377729
 H          2.3141254219        2.9217271694       -0.0936083448
 H          2.7944824179        1.2028889719        0.0372808326
 H          1.9582400726        2.0026599296        1.3972773066
