  27
        -46.44742939
 C          0.9509048934        2.7134257938       -0.4108492326
 C          1.5169309812        1.9357417812        0.7715201878
 N          1.7143037233        0.5405278876        0.3876929237
 C          2.4828369042        0.1035121368       -0.6578974614
 C          2.2203289141       -1.2201307222       -0.8132234311
 N          1.3032195067       -1.5568044297        0.1445274297
 C          0.9953642339       -0.4758494769        0.8534362926
 C          0.5870032366       -2.8176145463        0.2176368542
 C         -3.3697301472        0.3495681690       -0.5633143187
 S         -1.7016262959        0.0246700599       -0.0200470676
 O         -1.7405307065       -1.2964972920        0.6251033666
 O         -0.8613152853        0.0435414561       -1.2233485973
 O         -1.3675500998        1.1049977598        0.9212074299
 H          0.6901783862        3.7185931008       -0.0828989849
 H          0.0556584979        2.2130449738       -0.7772632281
 H          1.6793556173        2.7795080661       -1.2185071097
 H          0.8049651328        1.9410321617        1.5997694316
 H          2.4747567193        2.3475925112        1.1050316067
 H          3.1446721902        0.7573098671       -1.1978328333
 H          2.6039356005       -1.9384783967       -1.5162236919
 H          0.2745588975       -0.4285642409        1.6511718480
 H         -0.2141328525       -2.7932239984       -0.5228433153
 H          0.1466923276       -2.9146609900        1.2072355444
 H          1.2716530829       -3.6405123675        0.0161234720
 H         -3.6508004070       -0.4305515459       -1.2634340454
 H         -3.3825163770        1.3237223955       -1.0414760328
 H         -4.0128156039        0.3374079515        0.3106679055
