%chk=ccn3.chk
%mem=56Gb
%nprocs=12

#p pbepbe/def2tzvp/w06 opt scrf(cpcm,solvent=generic,read)

 ccn3

-1  1
C           0.85702         0.05741         0.02191
C          -0.43929         0.05741         0.02192
C          -1.19929         0.76361         1.13281
N          -1.82977         1.34945         2.05439
C          -1.19929        -0.64878        -1.08898
N          -1.82977        -1.23463        -2.01056
N           2.11098         0.05739         0.02188

eps=999.0

