  26
        -42.88616892
 C          2.8666906000       -0.6297272181       -0.5667766902
 C          2.7164361153        0.7665712899        0.0264276417
 N          1.3238161738        1.0179372690        0.3873869963
 C          0.7319938151        0.6392132530        1.5640909502
 C         -0.5813975004        0.9697043053        1.4678636857
 N         -0.7617292144        1.5304934511        0.2311460168
 C          0.3998190167        1.5403422833       -0.4217196369
 C         -2.0433291358        1.9474171707       -0.3130912749
 C         -0.0349673102       -2.0924292451        0.5063615407
 C         -0.9495191402       -1.5766215585       -0.4174166976
 C         -0.4315407193       -0.9217580164       -1.5315196230
 N          0.0339155806       -0.2734321958       -2.3785691167
 C         -2.2599836791       -1.2742071759       -0.0363059918
 N         -3.3153151746       -0.9063234275        0.2745528336
 N          0.7747072283       -2.4112393579        1.2732981151
 H          2.5458965561       -1.3820719198        0.1536453101
 H          3.9120517851       -0.7975604041       -0.8214808326
 H          2.2576980655       -0.7215975950       -1.4655108898
 H          3.0176660555        1.5330777374       -0.6930615105
 H          3.3180721860        0.8746638150        0.9330391209
 H          1.2804581247        0.1433338093        2.3453245525
 H         -1.3996161149        0.8306245333        2.1522760954
 H          0.5586255763        1.8805718504       -1.4300448159
 H         -1.9581726692        2.0121493584       -1.3964756401
 H         -2.3195963694        2.9178023132        0.1011977331
 H         -2.7941429835        1.1986133928       -0.0442961335
