  24
        -38.70153732
 C          2.8500276199        1.1534661943        0.3500648644
 C          2.8112358732       -0.3517625008        0.1078568285
 N          1.4315327593       -0.8228858826        0.1297930325
 C          0.7162321248       -1.1344260861        1.2613003866
 C         -0.5560840404       -1.3890856792        0.8678654500
 N         -0.5937462832       -1.2195289766       -0.4923571142
 C          0.6069339722       -0.8195370003       -0.9220772304
 C         -1.7960402901       -1.2807837283       -1.3056210194
 C         -0.5764237321        1.7376820681       -0.5668554305
 N          0.2745742737        1.5245257128       -1.3450798482
 N         -1.4690390152        1.9660168643        0.3173236682
 C         -2.2849509579        1.0689799015        0.7675038221
 N         -2.9830722655        0.2392595602        1.1917321060
 H          2.4440772613        1.3891041458        1.3328542043
 H          2.2497422569        1.6611172828       -0.4070723998
 H          3.8798499761        1.5026781660        0.2930087236
 H          3.3644175331       -0.8938542563        0.8801756788
 H          3.2342395707       -0.5982832711       -0.8700049507
 H          1.1734868139       -1.1564416567        2.2345832133
 H         -1.4408126964       -1.6338065556        1.4299220528
 H          0.8893399258       -0.6535203302       -1.9450340736
 H         -1.8882709841       -2.2686680940       -1.7596222719
 H         -1.7295851949       -0.5173978827       -2.0803634710
 H         -2.6529375993       -1.0803361657       -0.6603423082
