%chk=c1c2im_bcn4.chk
%mem=52Gb
%nprocs=12

#wb97xd/def2svp/w06 opt(tight) freq temperature=351.1 scale=0.9788

 c1c2im_bcn4

0  1
B           2.03850         0.32065         0.01368
C           1.81261        -1.18841        -0.37055
N           1.53529        -2.27744        -0.62825
C           1.22793         0.55494         1.34485
N           0.50222         0.69979         2.23043
C           1.29277         1.19533        -1.06226
N           0.61777         1.78998        -1.78406
C           3.55103         0.68451         0.15299
N           4.66415         0.95273         0.25825
C          -3.21411         2.21296         0.29741
C          -1.74650         1.80915         0.26739
N          -1.61747         0.39752        -0.07947
C          -1.51195        -0.09703        -1.34973
C          -1.32962        -1.43806        -1.23542
N          -1.34113        -1.72655         0.10344
C          -1.50743        -0.60146         0.79384
C          -1.05763        -3.03664         0.66240
H          -3.28964         3.26848         0.55406
H          -3.75534         1.62842         1.04119
H          -3.67328         2.05289        -0.67778
H          -1.27312         1.94913         1.24354
H          -1.19205         2.37658        -0.48614
H          -1.52673         0.54729        -2.21111
H          -1.16914        -2.19952        -1.97765
H          -1.50102        -0.50118         1.86583
H          -0.03943        -3.30973         0.36836
H          -1.76705        -3.76249         0.26571
H          -1.13563        -2.98678         1.74654

