  28
        -47.50566978
 B          2.0385004394        0.3206548229        0.0136774510
 C          1.8126122142       -1.1884085722       -0.3705457712
 N          1.5352941984       -2.2774394193       -0.6282461307
 C          1.2279273326        0.5549369262        1.3448482890
 N          0.5022179979        0.6997936863        2.2304307000
 C          1.2927697682        1.1953265823       -1.0622610436
 N          0.6177669919        1.7899839195       -1.7840645983
 C          3.5510344224        0.6845104350        0.1529902532
 N          4.6641489358        0.9527250420        0.2582466834
 C         -3.2141124759        2.2129575933        0.2974080492
 C         -1.7465003557        1.8091453118        0.2673910565
 N         -1.6174687616        0.3975200681       -0.0794705908
 C         -1.5119477366       -0.0970265380       -1.3497307227
 C         -1.3296221388       -1.4380594259       -1.2354243883
 N         -1.3411289202       -1.7265491867        0.1034407400
 C         -1.5074254242       -0.6014552201        0.7938393412
 C         -1.0576313587       -3.0366361194        0.6624015187
 H         -3.2896432420        3.2684807082        0.5540607280
 H         -3.7553405051        1.6284194131        1.0411858772
 H         -3.6732835830        2.0528898214       -0.6777794338
 H         -1.2731199408        1.9491267477        1.2435426890
 H         -1.1920481551        2.3765811215       -0.4861386072
 H         -1.5267346293        0.5472927322       -2.2111072021
 H         -1.1691382388       -2.1995162608       -1.9776451519
 H         -1.5010153929       -0.5011837467        1.8658330984
 H         -0.0394267178       -3.3097331566        0.3683624365
 H         -1.7670509832       -3.7624931937        0.2657124588
 H         -1.1356305015       -2.9867827314        1.7465401834
  28
        -47.50564628
 B         -1.9500151497       -0.2452623174       -0.0008238454
 C         -1.2284607839       -1.0831242054        1.1193765675
 N         -0.5797045242       -1.6529886459        1.8838785560
 C         -3.4458516935       -0.6519563465       -0.1926806005
 N         -4.5462663149       -0.9524650526       -0.3367206132
 C         -1.0856545721       -0.4767709648       -1.2979280218
 N         -0.3354473145       -0.6092357372       -2.1646722899
 C         -1.7732182911        1.2759165122        0.3594243108
 N         -1.5143263558        2.3752495988        0.5929044754
 C          2.1419206049       -2.4096390315       -0.9985275970
 C          2.1100114610       -1.8326138263        0.4056438337
 N          1.8366314187       -0.3938225554        0.4102911156
 C          1.5246153626        0.3018653636        1.5485048293
 C          1.2274672492        1.5707461008        1.1692483778
 N          1.3666379864        1.6168906912       -0.1913205564
 C          1.7285841074        0.4163073390       -0.6397937882
 C          1.0403905855        2.7681813975       -1.0148409147
 H          2.2674946039       -3.4892436451       -0.9260153398
 H          2.9727019200       -2.0007569291       -1.5738101449
 H          1.2087586498       -2.1999580323       -1.5219025477
 H          3.0633624405       -1.9930064203        0.9200654087
 H          1.3099621494       -2.2944226757        0.9973701817
 H          1.5040051871       -0.1742393077        2.5126656712
 H          0.8956555429        2.4239666482        1.7336435425
 H          1.8632421637        0.1536688024       -1.6739671206
 H          1.7942103117        3.5438889958       -0.8765530002
 H          0.0615863382        3.1382899454       -0.6999490941
 H          1.0059860359        2.4588681776       -2.0577234308
  28
        -47.50524297
 B         -2.0142001896        0.5785178671        0.0008425959
 C         -2.0025279856       -0.6900363919       -0.9319208572
 N         -1.8597762286       -1.6549278786       -1.5474297216
 C         -0.9393395580        1.5817847539       -0.5599160120
 N         -0.0716344980        2.2358596300       -0.9455964041
 C         -1.4530310111        0.0548304757        1.3774166682
 N         -0.9295365283       -0.4021899283        2.2988101866
 C         -3.4291972926        1.2268330006        0.1315347369
 N         -4.4703797791        1.7044671504        0.2306808322
 C          3.9368111598        1.4674844676        0.1522151784
 C          2.4482326533        1.4331191163        0.4700718274
 N          1.8627925571        0.1685720566        0.0388159657
 C          1.6264512003       -0.1754051896       -1.2655898142
 C          0.9901089095       -1.3749259199       -1.2469304243
 N          0.8515073517       -1.7286632953        0.0672713575
 C          1.3825368821       -0.7810822775        0.8371178322
 C          0.1100888415       -2.8819860407        0.5501677273
 H          4.1009747603        1.3630475312       -0.9196686789
 H          4.4564786962        0.6598790462        0.6675804695
 H          4.3504963005        2.4200754118        0.4797028821
 H          1.9070939291        2.2274178424       -0.0576170294
 H          2.2726516672        1.5329398922        1.5437310505
 H          1.8930998849        0.4731234724       -2.0808257486
 H          0.5877518104       -1.9788012505       -2.0410529321
 H          1.3704648208       -0.7652797200        1.9134497401
 H          0.7678588645       -3.7501883056        0.6037837538
 H         -0.7088365762       -3.0712061134       -0.1450114252
 H         -0.2878949071       -2.6450193168        1.5367836225
  28
        -47.50453992
 B          1.9641379284       -0.2154801865       -0.0091888768
 C          3.4775155442       -0.5506365854       -0.2051984193
 N          4.5905107867       -0.7976341314       -0.3542386700
 C          1.2432339438       -1.2068819051        0.9778524796
 N          0.6027990203       -1.8819457937        1.6584410233
 C          1.1465488287       -0.3088377867       -1.3524821038
 N          0.4259478799       -0.3632391025       -2.2525343277
 C          1.7345784968        1.2391478952        0.5439484224
 N          1.4545968410        2.2896233235        0.9280340980
 C         -2.0769806161       -2.8197486900        0.2069156883
 C         -2.0128513685       -1.6907657592       -0.8056087322
 N         -1.8217953670       -0.3785772572       -0.1773083290
 C         -1.6517930050       -0.0948676156        1.1491005464
 C         -1.3948245086        1.2367805832        1.2388138340
 N         -1.4181654099        1.7326108004       -0.0362256075
 C         -1.6645714311        0.7399756567       -0.8860683014
 C         -1.1093602998        3.1064478561       -0.3921934234
 H         -2.1991913920       -3.7583202934       -0.3324945526
 H         -2.9220308570       -2.6927016489        0.8832764285
 H         -1.1553671851       -2.8679400152        0.7879951007
 H         -2.9346273794       -1.6418104319       -1.3947611487
 H         -1.1690733062       -1.8291076094       -1.4922090670
 H         -1.6866720294       -0.8482496554        1.9147738996
 H         -1.1723522324        1.8604853416        2.0862042270
 H         -1.6920733250        0.8103021965       -1.9595777175
 H         -0.1143321149        3.3381580545       -0.0004602373
 H         -1.8485264666        3.7721891973        0.0535887086
 H         -1.1196965295        3.2047532052       -1.4758082159
  28
        -47.50396055
 B         -1.9370740201       -0.1162049612        0.0140057006
 C         -3.4698931488        0.1712553837       -0.0885962341
 N         -4.5958716033        0.3905026125       -0.1669712471
 C         -1.2691232551        0.6238195393        1.2327903473
 N         -0.6702426835        1.1433886244        2.0701020245
 C         -1.1532304159        0.3741654843       -1.2627264139
 N         -0.4649070476        0.7069564135       -2.1276336341
 C         -1.6156491630       -1.6470523985        0.1680337697
 N         -1.2728205556       -2.7427852231        0.2704345600
 C          0.7826409351        2.9589534057        0.0146354520
 C          1.8504744625        2.0904973603       -0.6357204258
 N          1.8331276981        0.7207799399       -0.1188924156
 C          1.8736978572        0.3461348588        1.1955505196
 C          1.8192785935       -1.0112349827        1.2210047385
 N          1.7538435235       -1.4309465651       -0.0804796003
 C          1.7501656093       -0.3688410682       -0.8812181112
 C          1.6243656202       -2.8149927407       -0.5026650495
 H         -0.2085777186        2.6026228671       -0.2585359201
 H          0.9019716632        3.9813522970       -0.3416354643
 H          0.8688746213        2.9473798196        1.0996775674
 H          2.8499624348        2.5009759175       -0.4578224485
 H          1.6748086831        2.0209905562       -1.7127684436
 H          1.9005802557        1.0596888578        1.9992694437
 H          1.8106140636       -1.7029988129        2.0446000067
 H          1.6632953578       -0.3774933923       -1.9540483278
 H          1.7555354472       -2.8712552287       -1.5814730248
 H          0.6217706334       -3.1659276331       -0.2294219969
 H          2.3799359924       -3.4165738947        0.0012705323
  28
        -47.50370289
 B         -2.0075230314        0.1928386551        0.0449128413
 C         -3.5273504636        0.4993997625        0.2347838434
 N         -4.6452694316        0.7281887217        0.3762136405
 C         -1.3858689391        0.9291979700       -1.2007191892
 N         -0.7996236517        1.4337540322       -2.0561683576
 C         -1.7174211482       -1.3436050268       -0.1317411309
 N         -1.3931382660       -2.4436375558       -0.2497789857
 C         -1.1344791859        0.6587570128        1.2722337830
 N         -0.3693118808        0.9629570330        2.0811767269
 C          2.6548075692        2.4204561443        0.7679884641
 C          1.6137053922        1.9427095778       -0.2318162886
 N          1.6248983824        0.4860794393       -0.3575525560
 C          1.4852622904       -0.1934323766       -1.5356788587
 C          1.3997625447       -1.5125625893       -1.2239076058
 N          1.4969760960       -1.6028070625        0.1387664691
 C          1.6181023912       -0.3819885132        0.6534440232
 C          1.3431953706       -2.8339525622        0.8936713530
 H          3.6398108733        2.0252365215        0.5209829234
 H          2.3868312087        2.1070959748        1.7765389524
 H          2.6939514996        3.5085573345        0.7435376090
 H          1.7923672342        2.3534888580       -1.2277216823
 H          0.6093306827        2.2341084505        0.0918983359
 H          1.4149721050        0.3195365022       -2.4786693774
 H          1.2588814791       -2.3814036972       -1.8417191025
 H          1.6572089578       -0.1353702173        1.7004615023
 H          0.3317441624       -3.2110230094        0.7123553979
 H          1.4813820116       -2.6231936899        1.9521759161
 H          2.0790347047       -3.5625856213        0.5544011400
  28
        -47.50369256
 B          1.9017406932       -0.6216041669        0.0141523738
 C          3.2856485685       -1.3382374325       -0.0901053940
 N          4.3036914773       -1.8666695163       -0.1700171903
 C          1.9075197692        0.5832974534        1.0278292945
 N          1.7851081606        1.5145173681        1.6971590865
 C          0.7484305703       -1.5990600171        0.4517580622
 N         -0.1708406780       -2.2287725259        0.7484691452
 C          1.4429186601        0.0211366716       -1.3497463836
 N          0.9939881801        0.5656012945       -2.2629605470
 C         -3.2563428107       -2.0438159155        0.1741856549
 C         -2.4829296625       -1.1941929017       -0.8188261096
 N         -1.9250088635        0.0132068206       -0.2017893951
 C         -1.7414000485        0.2504920375        1.1336572203
 C         -1.0534572458        1.4175637209        1.2374292524
 N         -0.8271056069        1.8584636608       -0.0365246922
 C         -1.3567124690        0.9956514393       -0.8999156430
 C         -0.0063629387        3.0035249794       -0.3939490159
 H         -2.5741619861       -2.4607665979        0.9149842080
 H         -3.7255490495       -2.8657969031       -0.3652233013
 H         -4.0306522032       -1.4626092133        0.6737902709
 H         -3.1194284192       -0.8754237860       -1.6496281988
 H         -1.6378652708       -1.7673383244       -1.2152521831
 H         -2.0790362648       -0.4284902697        1.8945495403
 H         -0.6716941554        1.9418263939        2.0955749541
 H         -1.2905276671        1.0583325041       -1.9725126303
 H          0.4309399442        2.8187484808       -1.3750373161
 H          0.7832059307        3.0974101697        0.3528075405
 H         -0.6168395597        3.9069912084       -0.4135279647
  28
        -47.50195554
 B          2.1201362673       -0.2515523848       -0.0901642905
 C          3.5938291803       -0.5210033204       -0.5272830035
 N          4.6787770698       -0.7172656593       -0.8537788283
 C          1.3703918079       -1.5442184982        0.3993099485
 N          0.7153724770       -2.4059075795        0.7970148320
 C          1.2462214005        0.3807909977       -1.2393846004
 N          0.5178648571        0.8864370036       -1.9766911356
 C          1.9904594597        0.7711860680        1.1014910109
 N          1.7046585685        1.5167290187        1.9346681220
 C         -1.9986621739       -2.6839994121       -0.4666219624
 C         -2.1827043635       -1.7612329067        0.7311040352
 N         -2.0671273237       -0.3617791760        0.3217027091
 C         -2.8182512419        0.2396360266       -0.6512405955
 C         -2.3624497398        1.5137695752       -0.7700437511
 N         -1.3535663421        1.6605569271        0.1395331472
 C         -1.1745809480        0.5114503126        0.7858738329
 C         -0.5210023989        2.8460419083        0.2600660995
 H         -2.7804466658       -2.5296455792       -1.2089799779
 H         -2.0360293960       -3.7156485184       -0.1204630581
 H         -1.0265856987       -2.5062010601       -0.9236104165
 H         -1.3986359673       -1.9513171410        1.4688995892
 H         -3.1644269681       -1.9015943948        1.1937245292
 H         -3.6051169091       -0.2768658230       -1.1717362900
 H         -2.6646701600        2.3148009285       -1.4212785211
 H         -0.4334296252        0.3273349811        1.5469020454
 H          0.0925139356        2.7599195669        1.1569014659
 H         -1.1565482234        3.7290346394        0.3111069364
 H          0.1219720194        2.8947725103       -0.6214378996
  28
        -47.50192468
 B          2.1026101028        0.2094155604       -0.0880194842
 C          1.9758378195       -0.8704897246        1.0520871213
 N          1.6955934806       -1.6491686034        1.8561909370
 C          3.5689928327        0.4437717381       -0.5678700449
 N          4.6479151427        0.6146635166       -0.9268409079
 C          1.4244592827        1.5026996063        0.4958619690
 N          0.8159235134        2.3662531484        0.9583285453
 C          1.1620241345       -0.3216314349       -1.2363873421
 N          0.3868265887       -0.7497407210       -1.9751397095
 C         -1.8256948728        2.7124420966       -0.4673017167
 C         -2.0988270831        1.8101353111        0.7293895193
 N         -2.0441141272        0.4051793453        0.3274878480
 C         -2.8175773080       -0.1645040221       -0.6469275779
 C         -2.4094616734       -1.4542079284       -0.7704514728
 N         -1.4060597004       -1.6414833666        0.1377905852
 C         -1.1834918273       -0.5014458236        0.7872035995
 C         -0.6071241212       -2.8510675866        0.2435158164
 H         -1.8032713648        3.7464279645       -0.1270219206
 H         -2.5981410705        2.6041134235       -1.2274035805
 H         -0.8574556723        2.4681466238       -0.9010584915
 H         -3.0866451443        2.0053544002        1.1575431579
 H         -1.3309170596        1.9630625216        1.4924727186
 H         -3.5842455237        0.3835020249       -1.1653120116
 H         -2.7412889628       -2.2410785983       -1.4244780796
 H         -0.4351186682       -0.3463245519        1.5474057036
 H         -1.2655032442       -3.7184412097        0.2533916397
 H         -0.0125711998       -2.8070944251        1.1558833434
 H          0.0562468326       -2.8916309454       -0.6229760762
  28
        -47.50073393
 B          2.1716844194       -0.3720270594        0.0620429781
 C          1.3198550434        0.1407401925        1.2841790719
 N          0.6155954792        0.5315221981        2.1086166826
 C          2.1560624891        0.7835539094       -1.0048587017
 N          1.9948461381        1.6211517056       -1.7809585199
 C          1.3453043910       -1.5407286730       -0.5909920701
 N          0.6291835965       -2.3001596664       -1.0825225143
 C          3.6133362954       -0.8039527818        0.4797328476
 N          4.6733933510       -1.1217388243        0.7919187700
 C         -3.4146027108       -2.0011786605       -0.6650882343
 C         -2.0989357373       -1.7959274740        0.0750139413
 N         -1.8338947578       -0.3688524884        0.2278029873
 C         -2.2559361992        0.3979756613        1.2764384322
 C         -1.8487930311        1.6694812235        1.0244315904
 N         -1.1947298227        1.6465654093       -0.1750607561
 C         -1.1818972563        0.3996967526       -0.6445363872
 C         -0.6032597574        2.8100892927       -0.8157482957
 H         -3.6007904170       -3.0686778419       -0.7723030983
 H         -3.3658277647       -1.5502312609       -1.6558458674
 H         -4.2405594108       -1.5512060791       -0.1141977057
 H         -1.2603489295       -2.2341231887       -0.4806704009
 H         -2.1368838397       -2.2359083612        1.0743085191
 H         -2.7831875068       -0.0205281572        2.1152464839
 H         -1.9519805551        2.5712434795        1.6012245354
 H         -0.7075441318        0.0642212339       -1.5517026025
 H         -0.1799686153        3.4543851522       -0.0467253953
 H         -1.3741439329        3.3492173423       -1.3681496637
 H          0.1891142066        2.4825029818       -1.4930075360
  28
        -47.49644643
 B         -2.1664842169        0.1493670129       -0.0305016943
 C         -3.0558218875       -0.7171582819        0.9285734128
 N         -3.6637815930       -1.3757962556        1.6494539240
 C         -1.1397539320        0.9735469143        0.8323127286
 N         -0.3393369538        1.5385900135        1.4434759583
 C         -3.0059869499        1.1289877310       -0.9203746337
 N         -3.5889825046        1.8643989955       -1.5852943485
 C         -1.3099688192       -0.8111554265       -0.9380162003
 N         -0.6279172443       -1.5046752538       -1.5587258840
 C          1.6779916338       -3.1387353760       -0.1884780517
 C          1.3302406218       -1.9830889888        0.7342422010
 N          1.7467119488       -0.6912964120        0.1804202325
 C          1.8817098015       -0.3698187736       -1.1424837658
 C          2.1406356288        0.9626816544       -1.2023395137
 N          2.1626298120        1.4209462306        0.0865514806
 C          1.9020368897        0.4092920708        0.9134009685
 C          2.2195238736        2.8104877363        0.5047685675
 H          2.7313167926       -3.1155048495       -0.4659938410
 H          1.0632415905       -3.0971797006       -1.0875067218
 H          1.4689406467       -4.0730976374        0.3309142542
 H          1.8167316919       -2.0917570350        1.7077008886
 H          0.2460070163       -1.9344356781        0.8829451278
 H          1.7445443388       -1.0904814572       -1.9277594545
 H          2.3046178761        1.6124705737       -2.0436653798
 H          1.8188835028        0.4782802232        1.9833420390
 H          2.3813533102        3.4391785977       -0.3679059865
 H          3.0289599892        2.9470789620        1.2216173426
 H          1.2613649417        3.0493473594        0.9757804121
