%chk=bcn4.chk
%mem=56Gb
%nprocs=12

#p pbepbe/def2tzvp/w06 opt scrf(cpcm,solvent=generic,read)

 bcn4

-1  1
B           0.97588        -0.05181         0.08301
C           0.46105        -0.39461        -1.33309
N           0.07558        -0.65115        -2.39381
C           0.46091        -1.10625         1.08842
N           0.07539        -1.89583         1.84179
C           0.46144         1.34606         0.49378
N           0.07657         2.39325         0.80148
C           2.52101        -0.05122         0.08326
N           3.67833        -0.05032         0.08357

eps=999.0

